
This summary file was generated by TurbSim on 30-Sep-2021 at 16:53:17.


ERROR:  ReadInputFile:GetUSRTimeSeries:OpenFInpFile:The input file, "Case00/Seed_1/TurbSim/USRTimeSeries_T0.txt", was not found.

ABORTING PROGRAM.
