
This summary file was generated by TurbSim on 30-Sep-2021 at 17:39:05.


Runtime Options:

 -63137230  Random seed #1
    RANLUX  Type of random number generator
         F  Output binary HH turbulence parameters?
         F  Output formatted turbulence parameters?
         F  Output AeroDyn HH files?
         T  Output AeroDyn FF files?
         F  Output BLADED FF files?
         F  Output tower data?
         F  Output formatted FF files?
         F  Output coherent turbulence time step file?
         T  Clockwise rotation when looking downwind?
 0 -  NONE  IEC turbulence models scaled to exact specified standard deviation


Turbine/Model Specifications:

        85  Vertical grid-point matrix dimension
      2221  Horizontal grid-point matrix dimension
     0.500  Time step [seconds]
     5.000  Analysis time [seconds]
     5.000  Usable output time [seconds]
   211.000  Hub height [m]
   420.000  Grid height [m]
 11100.000  Grid width [m]
     0.000  Vertical flow angle [degrees]
     0.000  Horizontal flow angle [degrees]


Meteorological Boundary Conditions:

    IECKAI  IEC Kaimal spectral model
         1  IEC standard: IEC 61400-1 Ed. 3: 2005
         A  IEC turbulence characteristic
       NTM  IEC Normal Turbulence Model
       N/A  IEC Extreme Turbulence Model (ETM) "c" parameter [m/s]
       PL   Wind profile type
    88.500  Reference height [m]
     4.500  Reference wind speed [m/s]
       N/A  Jet height [m]
     0.100  Power law exponent
     0.030  Surface roughness length [m]


Non-IEC Meteorological Boundary Conditions:

       N/A  Site latitude [degrees]
       N/A  Gradient Richardson number
       N/A  Friction or shear velocity [m/s]
       N/A  Mixing layer depth [m]
       N/A  Mean hub u'w' Reynolds stress
       N/A  Mean hub u'v' Reynolds stress
       N/A  Mean hub v'w' Reynolds stress


Spatial Coherence Models:

       IEC  u-component coherence model
       IEC  v-component coherence model
       IEC  w-component coherence model
(   12.000, 0.353E-03)  u-component coherence parameters
(   12.000, 0.106E-02)  v-component coherence parameters
(   12.000, 0.433E-02)  w-component coherence parameters
       N/A  Coherence exponent


You have requested that the following file(s) be generated:

   Case00/Seed_1/TurbSim/Low.bts (AeroDyn/TurbSim full-field wind file)


Turbulence Simulation Scaling Parameter Summary:

   Turbulence model used                            =  IEC Kaimal
   Turbulence characteristic                        =  A
   IEC turbulence type                              =  Normal Turbulence Model
   IEC standard                                     =  IEC 61400-1 Ed. 3: 2005
   Mean wind speed at hub height                    =    4.908 m/s
   Expected value of turbulence intensity at 15 m/s =   16.000%
   Characteristic value of standard deviation       =    1.485 m/s
   Turbulence scale                                 =   42.000 m
   u-component integral scale                       =  340.200 m
   Coherency scale                                  =  340.200 m
   Characteristic value of hub turbulence intensity =   30.254%
   Gradient Richardson number                       =    0.000

   Wind profile type                                =  Power law
   Power law exponent                               =    0.100
   Mean shear across rotor disk                     =    0.006 (m/s)/m
   Assumed rotor diameter                           =  420.000 m
   Surface roughness length                         =    0.030 m

   Nyquist frequency of turbulent wind field        =    1.000 Hz

   Number of time steps in the FFT                  =       10
   Number of time steps output                      =       10
   Number of points simulated                       =   188785


Mean Flow Angles:

   Vertical   =   0.0 degrees
   Horizontal =   0.0 degrees

Mean Wind Speed Profile:

   Height    Wind Speed   Horizontal Angle  Vertical Angle  U-comp (X)   V-comp (Y)   W-comp (Z)
     (m)        (m/s)         (degrees)       (degrees)       (m/s)        (m/s)        (m/s)   
   ------    ----------   ----------------  --------------  ----------   ----------   ----------
    421.0        5.26            0.00            0.00          5.26         0.00         0.00
    416.0        5.25            0.00            0.00          5.25         0.00         0.00
    411.0        5.25            0.00            0.00          5.25         0.00         0.00
    406.0        5.24            0.00            0.00          5.24         0.00         0.00
    401.0        5.23            0.00            0.00          5.23         0.00         0.00
    396.0        5.23            0.00            0.00          5.23         0.00         0.00
    391.0        5.22            0.00            0.00          5.22         0.00         0.00
    386.0        5.21            0.00            0.00          5.21         0.00         0.00
    381.0        5.21            0.00            0.00          5.21         0.00         0.00
    376.0        5.20            0.00            0.00          5.20         0.00         0.00
    371.0        5.19            0.00            0.00          5.19         0.00         0.00
    366.0        5.19            0.00            0.00          5.19         0.00         0.00
    361.0        5.18            0.00            0.00          5.18         0.00         0.00
    356.0        5.17            0.00            0.00          5.17         0.00         0.00
    351.0        5.16            0.00            0.00          5.16         0.00         0.00
    346.0        5.16            0.00            0.00          5.16         0.00         0.00
    341.0        5.15            0.00            0.00          5.15         0.00         0.00
    336.0        5.14            0.00            0.00          5.14         0.00         0.00
    331.0        5.13            0.00            0.00          5.13         0.00         0.00
    326.0        5.13            0.00            0.00          5.13         0.00         0.00
    321.0        5.12            0.00            0.00          5.12         0.00         0.00
    316.0        5.11            0.00            0.00          5.11         0.00         0.00
    311.0        5.10            0.00            0.00          5.10         0.00         0.00
    306.0        5.09            0.00            0.00          5.09         0.00         0.00
    301.0        5.09            0.00            0.00          5.09         0.00         0.00
    296.0        5.08            0.00            0.00          5.08         0.00         0.00
    291.0        5.07            0.00            0.00          5.07         0.00         0.00
    286.0        5.06            0.00            0.00          5.06         0.00         0.00
    281.0        5.05            0.00            0.00          5.05         0.00         0.00
    276.0        5.04            0.00            0.00          5.04         0.00         0.00
    271.0        5.03            0.00            0.00          5.03         0.00         0.00
    266.0        5.02            0.00            0.00          5.02         0.00         0.00
    261.0        5.01            0.00            0.00          5.01         0.00         0.00
    256.0        5.00            0.00            0.00          5.00         0.00         0.00
    251.0        4.99            0.00            0.00          4.99         0.00         0.00
    246.0        4.98            0.00            0.00          4.98         0.00         0.00
    241.0        4.97            0.00            0.00          4.97         0.00         0.00
    236.0        4.96            0.00            0.00          4.96         0.00         0.00
    231.0        4.95            0.00            0.00          4.95         0.00         0.00
    226.0        4.94            0.00            0.00          4.94         0.00         0.00
    221.0        4.93            0.00            0.00          4.93         0.00         0.00
    216.0        4.92            0.00            0.00          4.92         0.00         0.00
    211.0        4.91            0.00            0.00          4.91         0.00         0.00
    206.0        4.90            0.00            0.00          4.90         0.00         0.00
