
This summary file was generated by TurbSim on 30-Sep-2021 at 17:33:49.


ERROR:  ReadInputFile:GetUSRTimeSeries:OpenFInpFile:The input file, "Case00/Seed_0/TurbSim/USRTimeSeries_T0.txt", was not found.

ABORTING PROGRAM.
