
This summary file was generated by TurbSim on 27-Sep-2021 at 20:20:36.


ERROR:  ReadInputFile:GetUSRTimeSeries:OpenFInpFile:The input file, "Case00/Seed_0/TurbSim/USRTimeSeries_T1.txt", was not found.

ABORTING PROGRAM.
