
This summary file was generated by TurbSim on 30-Sep-2021 at 17:39:00.


Runtime Options:

1974935878  Random seed #1
    RANLUX  Type of random number generator
         F  Output binary HH turbulence parameters?
         F  Output formatted turbulence parameters?
         F  Output AeroDyn HH files?
         T  Output AeroDyn FF files?
         F  Output BLADED FF files?
         F  Output tower data?
         F  Output formatted FF files?
         F  Output coherent turbulence time step file?
         T  Clockwise rotation when looking downwind?
 0 -  NONE  IEC turbulence models scaled to exact specified standard deviation


Turbine/Model Specifications:

        85  Vertical grid-point matrix dimension
        22  Horizontal grid-point matrix dimension
     0.500  Time step [seconds]
     5.000  Analysis time [seconds]
     5.000  Usable output time [seconds]
   211.000  Hub height [m]
   420.000  Grid height [m]
 11100.000  Grid width [m]
     0.000  Vertical flow angle [degrees]
     0.000  Horizontal flow angle [degrees]


Meteorological Boundary Conditions:

    IECKAI  IEC Kaimal spectral model
         1  IEC standard: IEC 61400-1 Ed. 3: 2005
         A  IEC turbulence characteristic
       NTM  IEC Normal Turbulence Model
       N/A  IEC Extreme Turbulence Model (ETM) "c" parameter [m/s]
       PL   Wind profile type
    88.500  Reference height [m]
     4.500  Reference wind speed [m/s]
       N/A  Jet height [m]
     0.100  Power law exponent
     0.030  Surface roughness length [m]


Non-IEC Meteorological Boundary Conditions:

       N/A  Site latitude [degrees]
       N/A  Gradient Richardson number
       N/A  Friction or shear velocity [m/s]
       N/A  Mixing layer depth [m]
       N/A  Mean hub u'w' Reynolds stress
       N/A  Mean hub u'v' Reynolds stress
       N/A  Mean hub v'w' Reynolds stress


Spatial Coherence Models:

       IEC  u-component coherence model
       IEC  v-component coherence model
       IEC  w-component coherence model
(   12.000, 0.353E-03)  u-component coherence parameters
(   12.000, 0.106E-02)  v-component coherence parameters
(   12.000, 0.433E-02)  w-component coherence parameters
       N/A  Coherence exponent


You have requested that the following file(s) be generated:

   Case00/Seed_0/TurbSim/Low.bts (AeroDyn/TurbSim full-field wind file)


Turbulence Simulation Scaling Parameter Summary:

   Turbulence model used                            =  IEC Kaimal
   Turbulence characteristic                        =  A
   IEC turbulence type                              =  Normal Turbulence Model
   IEC standard                                     =  IEC 61400-1 Ed. 3: 2005
   Mean wind speed at hub height                    =    4.908 m/s
   Expected value of turbulence intensity at 15 m/s =   16.000%
   Characteristic value of standard deviation       =    1.485 m/s
   Turbulence scale                                 =   42.000 m
   u-component integral scale                       =  340.200 m
   Coherency scale                                  =  340.200 m
   Characteristic value of hub turbulence intensity =   30.254%
   Gradient Richardson number                       =    0.000

   Wind profile type                                =  Power law
   Power law exponent                               =    0.100
   Mean shear across rotor disk                     =    0.006 (m/s)/m
   Assumed rotor diameter                           =  420.000 m
   Surface roughness length                         =    0.030 m

   Nyquist frequency of turbulent wind field        =    1.000 Hz

   Number of time steps in the FFT                  =       10
   Number of time steps output                      =       10
   Number of points simulated                       =     1871


Mean Flow Angles:

   Vertical   =   0.0 degrees
   Horizontal =   0.0 degrees

Mean Wind Speed Profile:

   Height    Wind Speed   Horizontal Angle  Vertical Angle  U-comp (X)   V-comp (Y)   W-comp (Z)
     (m)        (m/s)         (degrees)       (degrees)       (m/s)        (m/s)        (m/s)   
   ------    ----------   ----------------  --------------  ----------   ----------   ----------
    421.0        5.26            0.00            0.00          5.26         0.00         0.00
    416.0        5.25            0.00            0.00          5.25         0.00         0.00
    411.0        5.25            0.00            0.00          5.25         0.00         0.00
    406.0        5.24            0.00            0.00          5.24         0.00         0.00
    401.0        5.23            0.00            0.00          5.23         0.00         0.00
    396.0        5.23            0.00            0.00          5.23         0.00         0.00
    391.0        5.22            0.00            0.00          5.22         0.00         0.00
    386.0        5.21            0.00            0.00          5.21         0.00         0.00
    381.0        5.21            0.00            0.00          5.21         0.00         0.00
    376.0        5.20            0.00            0.00          5.20         0.00         0.00
    371.0        5.19            0.00            0.00          5.19         0.00         0.00
    366.0        5.19            0.00            0.00          5.19         0.00         0.00
    361.0        5.18            0.00            0.00          5.18         0.00         0.00
    356.0        5.17            0.00            0.00          5.17         0.00         0.00
    351.0        5.16            0.00            0.00          5.16         0.00         0.00
    346.0        5.16            0.00            0.00          5.16         0.00         0.00
    341.0        5.15            0.00            0.00          5.15         0.00         0.00
    336.0        5.14            0.00            0.00          5.14         0.00         0.00
    331.0        5.13            0.00            0.00          5.13         0.00         0.00
    326.0        5.13            0.00            0.00          5.13         0.00         0.00
    321.0        5.12            0.00            0.00          5.12         0.00         0.00
    316.0        5.11            0.00            0.00          5.11         0.00         0.00
    311.0        5.10            0.00            0.00          5.10         0.00         0.00
    306.0        5.09            0.00            0.00          5.09         0.00         0.00
    301.0        5.09            0.00            0.00          5.09         0.00         0.00
    296.0        5.08            0.00            0.00          5.08         0.00         0.00
    291.0        5.07            0.00            0.00          5.07         0.00         0.00
    286.0        5.06            0.00            0.00          5.06         0.00         0.00
    281.0        5.05            0.00            0.00          5.05         0.00         0.00
    276.0        5.04            0.00            0.00          5.04         0.00         0.00
    271.0        5.03            0.00            0.00          5.03         0.00         0.00
    266.0        5.02            0.00            0.00          5.02         0.00         0.00
    261.0        5.01            0.00            0.00          5.01         0.00         0.00
    256.0        5.00            0.00            0.00          5.00         0.00         0.00
    251.0        4.99            0.00            0.00          4.99         0.00         0.00
    246.0        4.98            0.00            0.00          4.98         0.00         0.00
    241.0        4.97            0.00            0.00          4.97         0.00         0.00
    236.0        4.96            0.00            0.00          4.96         0.00         0.00
    231.0        4.95            0.00            0.00          4.95         0.00         0.00
    226.0        4.94            0.00            0.00          4.94         0.00         0.00
    221.0        4.93            0.00            0.00          4.93         0.00         0.00
    216.0        4.92            0.00            0.00          4.92         0.00         0.00
    211.0        4.91            0.00            0.00          4.91         0.00         0.00
    211.0        4.91            0.00            0.00          4.91         0.00         0.00
    206.0        4.90            0.00            0.00          4.90         0.00         0.00
    201.0        4.88            0.00            0.00          4.88         0.00         0.00
    196.0        4.87            0.00            0.00          4.87         0.00         0.00
    191.0        4.86            0.00            0.00          4.86         0.00         0.00
    186.0        4.85            0.00            0.00          4.85         0.00         0.00
    181.0        4.83            0.00            0.00          4.83         0.00         0.00
    176.0        4.82            0.00            0.00          4.82         0.00         0.00
    171.0        4.81            0.00            0.00          4.81         0.00         0.00
    166.0        4.79            0.00            0.00          4.79         0.00         0.00
    161.0        4.78            0.00            0.00          4.78         0.00         0.00
    156.0        4.76            0.00            0.00          4.76         0.00         0.00
    151.0        4.75            0.00            0.00          4.75         0.00         0.00
    146.0        4.73            0.00            0.00          4.73         0.00         0.00
    141.0        4.71            0.00            0.00          4.71         0.00         0.00
    136.0        4.70            0.00            0.00          4.70         0.00         0.00
    131.0        4.68            0.00            0.00          4.68         0.00         0.00
    126.0        4.66            0.00            0.00          4.66         0.00         0.00
    121.0        4.64            0.00            0.00          4.64         0.00         0.00
    116.0        4.62            0.00            0.00          4.62         0.00         0.00
    111.0        4.60            0.00            0.00          4.60         0.00         0.00
    106.0        4.58            0.00            0.00          4.58         0.00         0.00
    101.0        4.56            0.00            0.00          4.56         0.00         0.00
     96.0        4.54            0.00            0.00          4.54         0.00         0.00
     91.0        4.51            0.00            0.00          4.51         0.00         0.00
     86.0        4.49            0.00            0.00          4.49         0.00         0.00
     81.0        4.46            0.00            0.00          4.46         0.00         0.00
     76.0        4.43            0.00            0.00          4.43         0.00         0.00
     71.0        4.40            0.00            0.00          4.40         0.00         0.00
     66.0        4.37            0.00            0.00          4.37         0.00         0.00
     61.0        4.34            0.00            0.00          4.34         0.00         0.00
     56.0        4.30            0.00            0.00          4.30         0.00         0.00
     51.0        4.26            0.00            0.00          4.26         0.00         0.00
     46.0        4.21            0.00            0.00          4.21         0.00         0.00
     41.0        4.17            0.00            0.00          4.17         0.00         0.00
     36.0        4.11            0.00            0.00          4.11         0.00         0.00
     31.0        4.05            0.00            0.00          4.05         0.00         0.00
     26.0        3.98            0.00            0.00          3.98         0.00         0.00
     21.0        3.90            0.00            0.00          3.90         0.00         0.00
     16.0        3.79            0.00            0.00          3.79         0.00         0.00
     11.0        3.65            0.00            0.00          3.65         0.00         0.00
      6.0        3.44            0.00            0.00          3.44         0.00         0.00
      1.0        2.87            0.00            0.00          2.87         0.00         0.00


Harvested Random Seeds after Generation of the Random Numbers:

       260696 K 1
            0 K 2


Hub-Height Simulated Turbulence Statistical Summary:

   Type of Wind        Min (m/s)   Mean (m/s)    Max (m/s)  Sigma (m/s)       TI (%)
   ----------------    ---------   ----------    ---------  -----------       ------
   Longitudinal (u)         4.45         4.91         5.73        0.346        7.046
   Lateral (v)             -0.74        -0.00         0.70        0.393        8.006
   Vertical (w)            -0.62        -0.00         0.70        0.368        7.488
   U component              4.45         4.91         5.73        0.346        7.046
   V component             -0.74        -0.00         0.70        0.393        8.006
   W component             -0.62        -0.00         0.70        0.368        7.488
   Horizontal (U&V)         4.45         4.92         5.74        0.346        7.021
   Total                    4.46         4.94         5.74        0.343        6.952

                       Min Reynolds     Mean Reynolds    Max Reynolds    Correlation
   Product             Stress (m/s)^2   Stress (m/s)^2   Stress (m/s)^2  Coefficient
   ----------------    --------------   --------------   --------------  -----------
   u'w'                     -0.051             0.037             0.150         0.287
   u'v'                     -0.028             0.054             0.267         0.394
   v'w'                     -0.150             0.059             0.489         0.409


   Friction Velocity (Ustar)  =      0.191 m/s
   Maximum Instantaneous TKE  =      0.491 (m/s)^2
   Maximum Instantaneous CTKE =      0.247 (m/s)^2


Grid Point Variance Summary:

   Y-coord-5550.00-5021.43-4492.86-3964.29-3435.71-2907.14-2378.57-1850.00-1321.43 -792.86 -264.29  264.29  792.86 1321.43 1850.00 2378.57 2907.14 3435.71 3964.29 4492.86 5021.43 5550.00

   Height   Standard deviation at grid points for the u component:
   421.00    0.356   0.351   0.342   0.333   0.326   0.354   0.362   0.330   0.336   0.355   0.332   0.346   0.344   0.354   0.350   0.365   0.360   0.329   0.360   0.333   0.363   0.361
   416.00    0.362   0.363   0.328   0.352   0.366   0.361   0.330   0.353   0.330   0.365   0.364   0.352   0.365   0.335   0.329   0.354   0.330   0.359   0.336   0.363   0.332   0.354
   411.00    0.326   0.331   0.349   0.356   0.364   0.346   0.332   0.340   0.344   0.349   0.361   0.337   0.361   0.326   0.348   0.339   0.363   0.336   0.349   0.362   0.360   0.338
   406.00    0.352   0.345   0.363   0.327   0.358   0.325   0.346   0.363   0.329   0.326   0.364   0.339   0.337   0.361   0.329   0.354   0.329   0.349   0.328   0.347   0.342   0.335
   401.00    0.361   0.365   0.328   0.359   0.332   0.362   0.327   0.328   0.334   0.358   0.362   0.347   0.329   0.326   0.360   0.331   0.327   0.338   0.332   0.328   0.329   0.328
   396.00    0.335   0.362   0.326   0.330   0.353   0.328   0.334   0.325   0.361   0.334   0.327   0.362   0.363   0.349   0.333   0.361   0.365   0.357   0.329   0.365   0.364   0.329
   391.00    0.363   0.330   0.352   0.325   0.358   0.360   0.328   0.364   0.362   0.362   0.332   0.326   0.362   0.353   0.346   0.329   0.362   0.331   0.332   0.359   0.359   0.337
   386.00    0.328   0.343   0.362   0.362   0.327   0.364   0.333   0.340   0.351   0.325   0.338   0.349   0.329   0.363   0.366   0.327   0.329   0.335   0.331   0.362   0.331   0.363
   381.00    0.329   0.336   0.335   0.365   0.352   0.352   0.327   0.332   0.342   0.359   0.335   0.358   0.327   0.337   0.365   0.335   0.328   0.330   0.331   0.336   0.339   0.327
   376.00    0.352   0.359   0.334   0.360   0.349   0.362   0.336   0.356   0.328   0.335   0.328   0.333   0.333   0.327   0.364   0.348   0.331   0.341   0.336   0.362   0.350   0.346
   371.00    0.324   0.336   0.349   0.356   0.363   0.328   0.364   0.356   0.363   0.330   0.357   0.350   0.329   0.344   0.346   0.345   0.363   0.362   0.366   0.333   0.355   0.349
   366.00    0.364   0.335   0.352   0.352   0.352   0.327   0.350   0.363   0.329   0.363   0.339   0.335   0.326   0.363   0.347   0.324   0.365   0.329   0.366   0.366   0.332   0.354
   361.00    0.351   0.330   0.360   0.328   0.363   0.336   0.333   0.348   0.348   0.364   0.342   0.359   0.345   0.335   0.329   0.364   0.357   0.357   0.363   0.359   0.325   0.345
   356.00    0.357   0.338   0.358   0.328   0.342   0.337   0.347   0.343   0.326   0.363   0.364   0.327   0.329   0.366   0.327   0.341   0.329   0.345   0.350   0.331   0.365   0.333
   351.00    0.328   0.336   0.359   0.330   0.330   0.350   0.361   0.360   0.350   0.355   0.355   0.359   0.330   0.362   0.355   0.335   0.326   0.331   0.357   0.362   0.365   0.329
   346.00    0.363   0.355   0.362   0.345   0.330   0.349   0.352   0.350   0.330   0.330   0.340   0.329   0.362   0.334   0.363   0.335   0.355   0.330   0.366   0.365   0.360   0.365
   341.00    0.330   0.338   0.331   0.329   0.355   0.329   0.339   0.335   0.360   0.362   0.347   0.347   0.361   0.326   0.327   0.355   0.338   0.325   0.360   0.362   0.355   0.362
   336.00    0.339   0.357   0.360   0.358   0.335   0.327   0.361   0.330   0.352   0.340   0.343   0.360   0.337   0.364   0.337   0.334   0.356   0.362   0.353   0.326   0.330   0.364
   331.00    0.328   0.336   0.327   0.355   0.326   0.354   0.334   0.337   0.364   0.328   0.339   0.362   0.334   0.360   0.362   0.327   0.360   0.364   0.360   0.358   0.361   0.347
   326.00    0.327   0.355   0.353   0.364   0.347   0.329   0.354   0.359   0.356   0.326   0.345   0.366   0.346   0.347   0.356   0.356   0.364   0.349   0.328   0.363   0.328   0.359
   321.00    0.363   0.329   0.358   0.356   0.334   0.325   0.354   0.334   0.344   0.360   0.328   0.362   0.364   0.349   0.327   0.364   0.345   0.361   0.332   0.333   0.334   0.342
   316.00    0.341   0.360   0.328   0.362   0.340   0.361   0.352   0.348   0.330   0.346   0.338   0.361   0.359   0.356   0.331   0.340   0.330   0.362   0.337   0.359   0.351   0.363
   311.00    0.363   0.361   0.342   0.336   0.359   0.361   0.328   0.358   0.357   0.351   0.341   0.339   0.339   0.328   0.340   0.340   0.354   0.343   0.327   0.356   0.361   0.332
   306.00    0.338   0.343   0.339   0.363   0.361   0.332   0.329   0.344   0.346   0.356   0.336   0.333   0.325   0.336   0.365   0.340   0.360   0.344   0.339   0.328   0.352   0.360
   301.00    0.360   0.366   0.339   0.328   0.354   0.328   0.333   0.328   0.363   0.353   0.342   0.364   0.357   0.333   0.360   0.334   0.328   0.352   0.364   0.348   0.358   0.328
   296.00    0.362   0.358   0.350   0.328   0.358   0.331   0.345   0.328   0.357   0.339   0.329   0.354   0.328   0.325   0.352   0.326   0.362   0.339   0.361   0.344   0.340   0.327
   291.00    0.339   0.352   0.332   0.358   0.325   0.333   0.327   0.355   0.356   0.359   0.356   0.331   0.333   0.364   0.362   0.357   0.328   0.360   0.353   0.326   0.345   0.332
   286.00    0.365   0.351   0.362   0.348   0.362   0.340   0.364   0.353   0.353   0.330   0.355   0.329   0.364   0.362   0.352   0.351   0.325   0.331   0.362   0.353   0.327   0.358
   281.00    0.364   0.353   0.355   0.342   0.364   0.363   0.363   0.349   0.346   0.363   0.325   0.335   0.365   0.362   0.363   0.348   0.362   0.340   0.363   0.338   0.349   0.349
   276.00    0.365   0.336   0.328   0.326   0.359   0.334   0.346   0.333   0.355   0.354   0.362   0.336   0.365   0.328   0.356   0.342   0.334   0.347   0.352   0.362   0.330   0.352
   271.00    0.366   0.338   0.327   0.352   0.334   0.326   0.328   0.329   0.361   0.328   0.330   0.349   0.357   0.355   0.327   0.344   0.355   0.325   0.336   0.326   0.337   0.333
   266.00    0.366   0.341   0.328   0.351   0.353   0.358   0.363   0.351   0.364   0.366   0.336   0.355   0.325   0.329   0.361   0.339   0.336   0.362   0.345   0.345   0.361   0.360
   261.00    0.366   0.363   0.360   0.363   0.361   0.334   0.329   0.343   0.366   0.360   0.347   0.363   0.361   0.328   0.357   0.359   0.365   0.348   0.365   0.337   0.341   0.338
   256.00    0.366   0.326   0.329   0.352   0.331   0.356   0.352   0.327   0.364   0.329   0.332   0.355   0.358   0.355   0.360   0.328   0.348   0.334   0.363   0.336   0.360   0.363
   251.00    0.360   0.361   0.363   0.340   0.330   0.363   0.326   0.350   0.361   0.328   0.343   0.337   0.362   0.351   0.363   0.334   0.330   0.336   0.328   0.328   0.341   0.337
   246.00    0.339   0.328   0.362   0.326   0.349   0.351   0.365   0.338   0.361   0.329   0.346   0.336   0.353   0.366   0.345   0.355   0.360   0.345   0.326   0.326   0.343   0.363
   241.00    0.347   0.339   0.336   0.344   0.362   0.331   0.358   0.363   0.328   0.364   0.347   0.362   0.329   0.364   0.328   0.362   0.332   0.354   0.360   0.361   0.361   0.360
   236.00    0.329   0.363   0.357   0.359   0.327   0.363   0.338   0.329   0.328   0.361   0.330   0.328   0.355   0.364   0.341   0.331   0.360   0.328   0.328   0.325   0.348   0.347
   231.00    0.355   0.328   0.329   0.336   0.337   0.364   0.357   0.328   0.326   0.361   0.338   0.349   0.362   0.348   0.353   0.361   0.328   0.329   0.356   0.364   0.359   0.349
   226.00    0.361   0.326   0.328   0.327   0.344   0.355   0.327   0.345   0.345   0.362   0.352   0.350   0.358   0.352   0.363   0.364   0.335   0.362   0.363   0.356   0.365   0.363
   221.00    0.353   0.349   0.334   0.359   0.337   0.343   0.345   0.356   0.359   0.357   0.351   0.357   0.331   0.332   0.352   0.344   0.341   0.330   0.362   0.333   0.361   0.336
   216.00    0.365   0.327   0.361   0.334   0.363   0.337   0.325   0.333   0.362   0.345   0.357   0.365   0.357   0.358   0.330   0.365   0.326   0.358   0.330   0.340   0.365   0.333
   211.00    0.354   0.348   0.335   0.335   0.352   0.362   0.364   0.362   0.360   0.335   0.331   0.363   0.346   0.344   0.358   0.357   0.363   0.362   0.344   0.344   0.363   0.365
   206.00    0.343   0.354   0.353   0.363   0.328   0.330   0.353   0.331   0.332   0.346   0.341   0.349   0.364   0.358   0.353   0.327   0.355   0.325   0.365   0.355   0.327   0.360
   201.00    0.362   0.331   0.350   0.328   0.352   0.356   0.363   0.353   0.325   0.326   0.356   0.353   0.358   0.327   0.362   0.354   0.364   0.365   0.351   0.359   0.357   0.359
   196.00    0.329   0.351   0.329   0.338   0.362   0.325   0.354   0.348   0.359   0.341   0.342   0.330   0.326   0.341   0.329   0.363   0.359   0.364   0.355   0.326   0.337   0.360
   191.00    0.325   0.329   0.326   0.339   0.327   0.364   0.351   0.347   0.328   0.358   0.361   0.355   0.354   0.327   0.350   0.340   0.363   0.344   0.358   0.364   0.334   0.345
   186.00    0.365   0.362   0.345   0.327   0.357   0.362   0.327   0.329   0.328   0.350   0.353   0.361   0.328   0.349   0.330   0.334   0.343   0.325   0.360   0.358   0.342   0.362
   181.00    0.348   0.357   0.360   0.365   0.328   0.329   0.348   0.346   0.359   0.358   0.332   0.345   0.333   0.325   0.351   0.329   0.338   0.356   0.354   0.349   0.362   0.326
   176.00    0.327   0.360   0.363   0.350   0.327   0.363   0.357   0.361   0.365   0.361   0.339   0.356   0.329   0.364   0.363   0.352   0.329   0.353   0.358   0.326   0.344   0.348
   171.00    0.352   0.343   0.361   0.362   0.341   0.337   0.354   0.337   0.345   0.328   0.335   0.354   0.330   0.342   0.349   0.329   0.331   0.344   0.336   0.351   0.326   0.328
   166.00    0.348   0.363   0.361   0.327   0.341   0.345   0.343   0.341   0.344   0.338   0.365   0.362   0.340   0.362   0.345   0.357   0.338   0.350   0.334   0.343   0.364   0.346
   161.00    0.338   0.356   0.340   0.346   0.356   0.365   0.355   0.335   0.359   0.358   0.351   0.340   0.350   0.331   0.331   0.343   0.355   0.330   0.346   0.329   0.336   0.352
   156.00    0.363   0.335   0.329   0.359   0.344   0.360   0.365   0.329   0.362   0.328   0.349   0.336   0.350   0.365   0.364   0.327   0.327   0.344   0.332   0.328   0.362   0.355
   151.00    0.363   0.341   0.359   0.332   0.364   0.365   0.364   0.329   0.347   0.328   0.345   0.329   0.358   0.363   0.338   0.354   0.331   0.329   0.343   0.337   0.336   0.361
   146.00    0.351   0.331   0.329   0.353   0.362   0.353   0.355   0.366   0.341   0.360   0.345   0.328   0.363   0.329   0.341   0.355   0.360   0.330   0.364   0.347   0.336   0.348
   141.00    0.336   0.334   0.332   0.338   0.362   0.338   0.362   0.361   0.364   0.327   0.363   0.332   0.329   0.357   0.329   0.365   0.364   0.332   0.359   0.348   0.358   0.339
   136.00    0.356   0.328   0.329   0.333   0.338   0.359   0.329   0.347   0.361   0.335   0.341   0.364   0.353   0.332   0.360   0.364   0.335   0.333   0.358   0.349   0.326   0.325
   131.00    0.356   0.340   0.356   0.359   0.364   0.338   0.333   0.336   0.333   0.346   0.342   0.362   0.366   0.363   0.360   0.363   0.354   0.360   0.330   0.329   0.363   0.364
   126.00    0.344   0.340   0.338   0.358   0.354   0.342   0.347   0.348   0.350   0.366   0.326   0.326   0.360   0.361   0.331   0.341   0.336   0.353   0.360   0.337   0.358   0.363
   121.00    0.364   0.341   0.339   0.363   0.349   0.343   0.330   0.337   0.362   0.362   0.352   0.363   0.328   0.355   0.330   0.362   0.363   0.341   0.326   0.329   0.334   0.327
   116.00    0.346   0.332   0.332   0.327   0.352   0.340   0.349   0.338   0.330   0.366   0.365   0.358   0.334   0.342   0.330   0.344   0.362   0.358   0.365   0.329   0.354   0.348
   111.00    0.365   0.360   0.365   0.337   0.333   0.329   0.342   0.352   0.329   0.365   0.362   0.337   0.328   0.344   0.327   0.357   0.333   0.364   0.359   0.331   0.340   0.333
   106.00    0.357   0.332   0.351   0.338   0.363   0.363   0.327   0.329   0.330   0.354   0.334   0.362   0.335   0.356   0.359   0.327   0.348   0.366   0.330   0.363   0.351   0.333
   101.00    0.364   0.328   0.358   0.343   0.333   0.327   0.365   0.329   0.342   0.357   0.344   0.360   0.332   0.354   0.349   0.334   0.338   0.363   0.327   0.339   0.326   0.365
    96.00    0.350   0.354   0.364   0.331   0.363   0.334   0.364   0.335   0.360   0.365   0.327   0.329   0.364   0.362   0.336   0.326   0.353   0.333   0.351   0.361   0.355   0.357
    91.00    0.365   0.330   0.364   0.329   0.364   0.330   0.363   0.363   0.339   0.363   0.357   0.345   0.338   0.327   0.363   0.359   0.326   0.362   0.344   0.332   0.334   0.355
    86.00    0.354   0.363   0.342   0.358   0.339   0.332   0.333   0.336   0.335   0.347   0.354   0.350   0.344   0.338   0.360   0.337   0.359   0.348   0.328   0.334   0.343   0.349
    81.00    0.328   0.328   0.332   0.326   0.364   0.327   0.365   0.349   0.362   0.348   0.328   0.334   0.328   0.339   0.364   0.329   0.361   0.325   0.327   0.329   0.333   0.341
    76.00    0.338   0.337   0.337   0.363   0.340   0.329   0.352   0.334   0.351   0.332   0.348   0.326   0.335   0.325   0.357   0.340   0.355   0.350   0.359   0.325   0.344   0.352
    71.00    0.327   0.365   0.330   0.365   0.337   0.342   0.344   0.362   0.331   0.342   0.328   0.352   0.359   0.365   0.362   0.341   0.356   0.328   0.324   0.363   0.327   0.333
    66.00    0.345   0.355   0.362   0.364   0.361   0.331   0.363   0.348   0.337   0.362   0.330   0.363   0.343   0.349   0.329   0.335   0.345   0.331   0.366   0.334   0.330   0.347
    61.00    0.327   0.347   0.330   0.333   0.338   0.354   0.342   0.359   0.345   0.343   0.338   0.337   0.335   0.331   0.335   0.327   0.331   0.327   0.361   0.339   0.328   0.352
    56.00    0.347   0.334   0.329   0.342   0.359   0.333   0.327   0.366   0.337   0.349   0.329   0.353   0.355   0.327   0.360   0.364   0.332   0.335   0.326   0.331   0.351   0.363
    51.00    0.351   0.355   0.358   0.336   0.360   0.362   0.333   0.366   0.335   0.364   0.332   0.358   0.329   0.356   0.334   0.360   0.345   0.331   0.358   0.337   0.328   0.336
    46.00    0.330   0.329   0.328   0.335   0.326   0.359   0.330   0.361   0.354   0.350   0.332   0.347   0.325   0.363   0.359   0.365   0.329   0.333   0.363   0.362   0.344   0.335
    41.00    0.331   0.364   0.327   0.328   0.347   0.333   0.348   0.328   0.337   0.350   0.363   0.356   0.363   0.336   0.365   0.366   0.325   0.328   0.344   0.341   0.338   0.365
    36.00    0.332   0.357   0.361   0.331   0.365   0.365   0.346   0.362   0.362   0.340   0.357   0.327   0.333   0.330   0.349   0.361   0.365   0.351   0.338   0.360   0.341   0.366
    31.00    0.338   0.362   0.353   0.335   0.362   0.352   0.363   0.328   0.326   0.327   0.339   0.341   0.359   0.332   0.342   0.325   0.363   0.358   0.335   0.361   0.361   0.364
    26.00    0.337   0.338   0.331   0.330   0.328   0.328   0.327   0.329   0.362   0.330   0.359   0.365   0.325   0.346   0.350   0.364   0.339   0.343   0.347   0.340   0.338   0.352
    21.00    0.328   0.359   0.360   0.325   0.339   0.328   0.341   0.362   0.329   0.351   0.352   0.357   0.361   0.343   0.364   0.345   0.341   0.358   0.348   0.342   0.329   0.339
    16.00    0.325   0.330   0.356   0.362   0.352   0.342   0.338   0.334   0.340   0.365   0.355   0.328   0.350   0.363   0.362   0.336   0.325   0.329   0.343   0.325   0.330   0.337
    11.00    0.359   0.366   0.356   0.329   0.348   0.364   0.352   0.326   0.350   0.355   0.327   0.347   0.345   0.345   0.328   0.361   0.364   0.359   0.341   0.358   0.328   0.342
     6.00    0.353   0.363   0.362   0.327   0.338   0.364   0.329   0.357   0.338   0.335   0.349   0.348   0.362   0.345   0.351   0.348   0.354   0.326   0.328   0.363   0.329   0.350
     1.00    0.346   0.346   0.346   0.346   0.346   0.346   0.346   0.346   0.346   0.346   0.346   0.346   0.346   0.346   0.346   0.346   0.346   0.346   0.346   0.346   0.346   0.346

   Height   Standard deviation at grid points for the v component:
   421.00    0.415   0.380   0.383   0.412   0.413   0.397   0.408   0.380   0.382   0.385   0.411   0.382   0.390   0.373   0.412   0.383   0.375   0.397   0.413   0.405   0.371   0.406
   416.00    0.411   0.376   0.396   0.393   0.395   0.373   0.373   0.407   0.378   0.378   0.371   0.415   0.407   0.373   0.387   0.410   0.377   0.413   0.387   0.385   0.408   0.391
   411.00    0.371   0.374   0.406   0.411   0.371   0.379   0.399   0.374   0.414   0.391   0.399   0.411   0.369   0.384   0.390   0.373   0.404   0.398   0.377   0.394   0.376   0.393
   406.00    0.412   0.387   0.377   0.389   0.393   0.412   0.387   0.397   0.399   0.374   0.411   0.404   0.415   0.414   0.375   0.373   0.373   0.381   0.405   0.375   0.374   0.393
   401.00    0.395   0.411   0.378   0.373   0.404   0.398   0.373   0.375   0.407   0.401   0.380   0.377   0.408   0.412   0.389   0.374   0.387   0.385   0.393   0.400   0.371   0.390
   396.00    0.374   0.374   0.373   0.375   0.399   0.405   0.374   0.396   0.379   0.370   0.373   0.382   0.413   0.415   0.375   0.400   0.411   0.376   0.404   0.370   0.410   0.398
   391.00    0.415   0.387   0.373   0.406   0.415   0.374   0.411   0.395   0.404   0.415   0.400   0.407   0.404   0.407   0.371   0.376   0.374   0.372   0.407   0.410   0.414   0.377
   386.00    0.409   0.405   0.374   0.410   0.407   0.406   0.384   0.369   0.370   0.406   0.381   0.399   0.382   0.376   0.390   0.371   0.383   0.372   0.373   0.398   0.411   0.382
   381.00    0.377   0.403   0.403   0.381   0.384   0.383   0.414   0.411   0.407   0.405   0.371   0.373   0.407   0.376   0.374   0.414   0.370   0.387   0.377   0.377   0.399   0.401
   376.00    0.373   0.386   0.379   0.382   0.392   0.373   0.414   0.405   0.405   0.412   0.395   0.373   0.382   0.388   0.397   0.411   0.406   0.380   0.415   0.377   0.386   0.406
   371.00    0.387   0.383   0.412   0.409   0.411   0.399   0.404   0.384   0.385   0.412   0.373   0.415   0.405   0.384   0.384   0.374   0.395   0.371   0.405   0.389   0.380   0.409
   366.00    0.379   0.403   0.393   0.374   0.404   0.392   0.375   0.411   0.375   0.381   0.376   0.412   0.372   0.394   0.380   0.373   0.380   0.399   0.380   0.411   0.407   0.383
   361.00    0.372   0.372   0.410   0.394   0.405   0.375   0.392   0.373   0.381   0.374   0.370   0.376   0.398   0.408   0.405   0.372   0.383   0.373   0.377   0.409   0.409   0.392
   356.00    0.390   0.374   0.372   0.381   0.381   0.401   0.411   0.412   0.412   0.409   0.413   0.379   0.387   0.388   0.372   0.403   0.377   0.386   0.377   0.412   0.378   0.413
   351.00    0.414   0.375   0.372   0.372   0.403   0.415   0.377   0.383   0.380   0.395   0.400   0.412   0.388   0.374   0.415   0.413   0.393   0.379   0.394   0.380   0.399   0.401
   346.00    0.411   0.403   0.389   0.408   0.373   0.411   0.380   0.375   0.398   0.394   0.378   0.389   0.381   0.371   0.413   0.402   0.413   0.414   0.397   0.373   0.382   0.410
   341.00    0.371   0.371   0.389   0.403   0.381   0.377   0.412   0.377   0.386   0.407   0.386   0.395   0.406   0.390   0.392   0.395   0.381   0.408   0.413   0.373   0.383   0.400
   336.00    0.415   0.390   0.411   0.383   0.410   0.379   0.384   0.408   0.373   0.375   0.373   0.380   0.405   0.373   0.406   0.407   0.372   0.387   0.406   0.373   0.370   0.401
   331.00    0.412   0.374   0.377   0.412   0.386   0.406   0.379   0.404   0.377   0.412   0.390   0.377   0.408   0.370   0.378   0.398   0.387   0.375   0.394   0.378   0.408   0.405
   326.00    0.400   0.370   0.373   0.372   0.402   0.391   0.389   0.411   0.408   0.388   0.374   0.414   0.408   0.414   0.413   0.411   0.392   0.388   0.402   0.412   0.374   0.401
   321.00    0.404   0.405   0.390   0.397   0.414   0.397   0.402   0.404   0.409   0.371   0.402   0.392   0.394   0.406   0.395   0.413   0.377   0.376   0.393   0.380   0.379   0.371
   316.00    0.414   0.400   0.412   0.375   0.402   0.407   0.391   0.415   0.373   0.394   0.414   0.380   0.378   0.369   0.387   0.411   0.371   0.378   0.411   0.378   0.408   0.405
   311.00    0.402   0.383   0.382   0.395   0.405   0.398   0.413   0.411   0.404   0.413   0.398   0.414   0.410   0.408   0.374   0.378   0.408   0.411   0.385   0.382   0.396   0.413
   306.00    0.414   0.411   0.371   0.412   0.403   0.375   0.397   0.372   0.373   0.401   0.378   0.403   0.390   0.378   0.372   0.372   0.407   0.393   0.384   0.372   0.389   0.385
   301.00    0.402   0.371   0.393   0.385   0.389   0.380   0.393   0.392   0.375   0.411   0.376   0.378   0.414   0.401   0.384   0.414   0.371   0.382   0.375   0.414   0.396   0.392
   296.00    0.371   0.392   0.414   0.394   0.415   0.414   0.376   0.413   0.394   0.392   0.376   0.374   0.406   0.376   0.413   0.411   0.405   0.370   0.379   0.400   0.405   0.407
   291.00    0.413   0.384   0.403   0.379   0.404   0.402   0.398   0.397   0.414   0.414   0.379   0.377   0.406   0.372   0.392   0.369   0.374   0.396   0.390   0.392   0.407   0.375
   286.00    0.405   0.385   0.407   0.398   0.408   0.372   0.371   0.395   0.406   0.400   0.373   0.374   0.374   0.414   0.395   0.412   0.377   0.415   0.405   0.377   0.396   0.376
   281.00    0.406   0.405   0.399   0.411   0.374   0.379   0.412   0.388   0.394   0.393   0.378   0.384   0.371   0.398   0.377   0.379   0.384   0.411   0.415   0.385   0.406   0.412
   276.00    0.379   0.400   0.405   0.373   0.372   0.413   0.381   0.377   0.374   0.411   0.394   0.412   0.393   0.402   0.407   0.373   0.373   0.373   0.410   0.372   0.405   0.388
   271.00    0.377   0.376   0.399   0.413   0.404   0.386   0.414   0.371   0.379   0.414   0.378   0.373   0.412   0.379   0.410   0.411   0.389   0.374   0.381   0.401   0.381   0.376
   266.00    0.372   0.381   0.381   0.412   0.373   0.402   0.403   0.415   0.411   0.400   0.369   0.375   0.414   0.392   0.389   0.378   0.381   0.394   0.399   0.396   0.376   0.409
   261.00    0.389   0.388   0.376   0.409   0.388   0.408   0.392   0.409   0.407   0.416   0.413   0.403   0.405   0.394   0.372   0.388   0.410   0.383   0.373   0.373   0.372   0.411
   256.00    0.378   0.411   0.370   0.370   0.374   0.411   0.412   0.407   0.375   0.413   0.406   0.407   0.373   0.372   0.391   0.395   0.402   0.401   0.372   0.378   0.374   0.378
   251.00    0.401   0.378   0.412   0.412   0.375   0.370   0.398   0.406   0.386   0.412   0.398   0.405   0.407   0.385   0.385   0.390   0.377   0.405   0.372   0.399   0.396   0.371
   246.00    0.392   0.411   0.413   0.401   0.413   0.412   0.399   0.411   0.405   0.372   0.413   0.371   0.411   0.376   0.392   0.414   0.408   0.376   0.374   0.407   0.372   0.397
   241.00    0.396   0.403   0.402   0.377   0.411   0.377   0.409   0.370   0.397   0.408   0.407   0.394   0.371   0.398   0.380   0.393   0.376   0.412   0.390   0.374   0.371   0.377
   236.00    0.377   0.402   0.383   0.412   0.380   0.405   0.377   0.407   0.397   0.399   0.411   0.393   0.412   0.414   0.415   0.385   0.411   0.383   0.382   0.383   0.408   0.401
   231.00    0.390   0.372   0.412   0.381   0.398   0.371   0.373   0.392   0.403   0.372   0.380   0.403   0.377   0.409   0.410   0.379   0.375   0.379   0.384   0.405   0.396   0.409
   226.00    0.384   0.407   0.380   0.413   0.406   0.415   0.414   0.371   0.401   0.398   0.411   0.397   0.401   0.385   0.376   0.408   0.412   0.381   0.409   0.387   0.370   0.376
   221.00    0.372   0.416   0.389   0.399   0.373   0.413   0.402   0.400   0.400   0.386   0.371   0.412   0.375   0.374   0.398   0.373   0.416   0.409   0.408   0.372   0.405   0.375
   216.00    0.409   0.415   0.386   0.396   0.402   0.414   0.375   0.388   0.412   0.400   0.408   0.405   0.413   0.372   0.374   0.372   0.414   0.385   0.376   0.398   0.391   0.402
   211.00    0.400   0.400   0.375   0.409   0.415   0.407   0.376   0.396   0.402   0.382   0.412   0.376   0.409   0.372   0.374   0.405   0.410   0.375   0.370   0.400   0.372   0.383
   206.00    0.374   0.410   0.379   0.394   0.412   0.371   0.400   0.372   0.403   0.388   0.391   0.382   0.371   0.373   0.373   0.415   0.378   0.415   0.407   0.401   0.383   0.404
   201.00    0.373   0.408   0.411   0.383   0.370   0.395   0.392   0.392   0.408   0.395   0.383   0.392   0.416   0.378   0.371   0.406   0.373   0.406   0.372   0.394   0.372   0.411
   196.00    0.409   0.414   0.374   0.383   0.395   0.405   0.371   0.385   0.370   0.410   0.393   0.389   0.411   0.372   0.409   0.376   0.383   0.372   0.392   0.372   0.380   0.371
   191.00    0.394   0.390   0.382   0.373   0.410   0.376   0.412   0.414   0.397   0.379   0.413   0.379   0.399   0.395   0.412   0.414   0.370   0.374   0.374   0.397   0.383   0.397
   186.00    0.405   0.382   0.400   0.383   0.374   0.371   0.371   0.397   0.411   0.377   0.377   0.403   0.389   0.409   0.387   0.414   0.398   0.372   0.381   0.403   0.412   0.378
   181.00    0.373   0.374   0.396   0.409   0.376   0.408   0.408   0.387   0.408   0.411   0.409   0.385   0.374   0.410   0.372   0.410   0.376   0.405   0.371   0.399   0.378   0.409
   176.00    0.392   0.380   0.392   0.395   0.397   0.390   0.370   0.406   0.388   0.411   0.409   0.406   0.401   0.406   0.385   0.412   0.386   0.410   0.411   0.397   0.398   0.381
   171.00    0.414   0.391   0.404   0.411   0.406   0.413   0.409   0.403   0.373   0.374   0.382   0.372   0.392   0.379   0.404   0.412   0.412   0.371   0.373   0.388   0.385   0.411
   166.00    0.412   0.376   0.370   0.382   0.411   0.410   0.371   0.394   0.412   0.373   0.407   0.378   0.379   0.409   0.374   0.411   0.393   0.411   0.403   0.371   0.376   0.414
   161.00    0.397   0.381   0.400   0.387   0.389   0.386   0.398   0.380   0.394   0.412   0.374   0.405   0.393   0.377   0.372   0.381   0.379   0.377   0.386   0.399   0.375   0.399
   156.00    0.398   0.377   0.380   0.373   0.387   0.413   0.413   0.379   0.412   0.372   0.387   0.399   0.412   0.369   0.393   0.403   0.384   0.379   0.385   0.371   0.410   0.374
   151.00    0.375   0.373   0.401   0.377   0.372   0.411   0.415   0.406   0.374   0.388   0.407   0.393   0.395   0.411   0.411   0.412   0.399   0.404   0.372   0.409   0.377   0.373
   146.00    0.378   0.394   0.380   0.373   0.407   0.381   0.409   0.378   0.397   0.393   0.372   0.402   0.409   0.399   0.386   0.372   0.415   0.412   0.378   0.395   0.387   0.386
   141.00    0.387   0.410   0.375   0.372   0.404   0.376   0.374   0.369   0.390   0.372   0.401   0.392   0.389   0.412   0.375   0.403   0.410   0.386   0.401   0.377   0.374   0.374
   136.00    0.380   0.384   0.408   0.397   0.372   0.416   0.412   0.408   0.378   0.374   0.415   0.408   0.374   0.408   0.375   0.377   0.381   0.413   0.398   0.378   0.376   0.370
   131.00    0.376   0.406   0.377   0.371   0.408   0.415   0.387   0.370   0.404   0.403   0.409   0.404   0.371   0.371   0.415   0.402   0.397   0.388   0.389   0.415   0.412   0.411
   126.00    0.378   0.372   0.402   0.412   0.406   0.398   0.395   0.414   0.370   0.392   0.371   0.374   0.415   0.415   0.404   0.385   0.391   0.407   0.401   0.411   0.374   0.383
   121.00    0.381   0.393   0.409   0.379   0.375   0.382   0.401   0.402   0.407   0.375   0.399   0.396   0.404   0.408   0.388   0.370   0.373   0.375   0.403   0.392   0.371   0.414
   116.00    0.414   0.395   0.407   0.381   0.381   0.399   0.387   0.386   0.399   0.391   0.410   0.412   0.374   0.379   0.408   0.400   0.376   0.402   0.407   0.416   0.391   0.411
   111.00    0.398   0.390   0.375   0.382   0.409   0.398   0.389   0.392   0.400   0.410   0.371   0.403   0.407   0.372   0.373   0.371   0.377   0.393   0.412   0.414   0.387   0.412
   106.00    0.399   0.372   0.371   0.376   0.382   0.376   0.375   0.379   0.398   0.384   0.409   0.404   0.409   0.413   0.373   0.406   0.415   0.376   0.382   0.412   0.412   0.378
   101.00    0.379   0.389   0.404   0.386   0.414   0.386   0.372   0.403   0.399   0.379   0.381   0.394   0.413   0.399   0.397   0.386   0.412   0.374   0.373   0.404   0.375   0.371
    96.00    0.397   0.408   0.379   0.371   0.413   0.379   0.399   0.409   0.394   0.413   0.415   0.380   0.400   0.376   0.408   0.389   0.390   0.369   0.372   0.380   0.389   0.401
    91.00    0.371   0.385   0.409   0.398   0.401   0.408   0.377   0.370   0.382   0.412   0.407   0.406   0.370   0.382   0.372   0.379   0.390   0.409   0.381   0.381   0.412   0.383
    86.00    0.400   0.401   0.370   0.399   0.382   0.381   0.372   0.411   0.412   0.374   0.401   0.374   0.410   0.387   0.379   0.374   0.373   0.374   0.382   0.370   0.382   0.380
    81.00    0.374   0.407   0.413   0.385   0.381   0.377   0.380   0.406   0.382   0.384   0.411   0.402   0.373   0.385   0.397   0.373   0.413   0.372   0.375   0.411   0.384   0.384
    76.00    0.375   0.372   0.397   0.369   0.414   0.414   0.414   0.396   0.413   0.383   0.401   0.410   0.412   0.412   0.386   0.380   0.389   0.408   0.403   0.373   0.394   0.375
    71.00    0.386   0.386   0.378   0.412   0.389   0.414   0.398   0.380   0.412   0.404   0.369   0.382   0.381   0.406   0.402   0.402   0.370   0.399   0.372   0.392   0.401   0.411
    66.00    0.380   0.389   0.414   0.379   0.415   0.415   0.411   0.372   0.389   0.399   0.415   0.380   0.412   0.379   0.374   0.413   0.407   0.374   0.400   0.413   0.400   0.370
    61.00    0.411   0.413   0.403   0.415   0.412   0.404   0.412   0.396   0.405   0.388   0.414   0.414   0.407   0.376   0.383   0.392   0.375   0.380   0.410   0.409   0.410   0.413
    56.00    0.379   0.411   0.390   0.412   0.410   0.402   0.404   0.376   0.386   0.378   0.388   0.395   0.370   0.376   0.406   0.400   0.414   0.401   0.408   0.371   0.393   0.408
    51.00    0.392   0.371   0.415   0.372   0.399   0.409   0.416   0.409   0.416   0.416   0.378   0.397   0.401   0.416   0.408   0.412   0.410   0.404   0.400   0.393   0.370   0.408
    46.00    0.391   0.390   0.405   0.389   0.388   0.410   0.413   0.393   0.411   0.414   0.383   0.412   0.387   0.411   0.372   0.397   0.370   0.374   0.386   0.390   0.412   0.409
    41.00    0.378   0.376   0.396   0.369   0.415   0.415   0.396   0.374   0.372   0.406   0.413   0.374   0.392   0.379   0.394   0.379   0.411   0.409   0.371   0.403   0.376   0.373
    36.00    0.384   0.409   0.394   0.407   0.406   0.414   0.396   0.372   0.378   0.375   0.408   0.414   0.410   0.413   0.387   0.373   0.393   0.381   0.398   0.416   0.403   0.374
    31.00    0.413   0.370   0.406   0.407   0.379   0.393   0.385   0.384   0.377   0.373   0.374   0.408   0.413   0.375   0.376   0.412   0.391   0.397   0.412   0.410   0.369   0.374
    26.00    0.383   0.396   0.370   0.412   0.371   0.409   0.372   0.402   0.401   0.372   0.371   0.391   0.404   0.403   0.372   0.379   0.371   0.385   0.378   0.382   0.411   0.408
    21.00    0.386   0.411   0.412   0.407   0.401   0.372   0.401   0.398   0.410   0.402   0.405   0.414   0.378   0.380   0.381   0.381   0.414   0.392   0.413   0.386   0.400   0.389
    16.00    0.372   0.415   0.370   0.405   0.397   0.393   0.377   0.414   0.414   0.407   0.372   0.413   0.405   0.395   0.380   0.400   0.403   0.381   0.396   0.375   0.414   0.378
    11.00    0.388   0.407   0.400   0.411   0.371   0.377   0.379   0.399   0.413   0.406   0.380   0.410   0.388   0.406   0.377   0.381   0.372   0.409   0.373   0.393   0.395   0.383
     6.00    0.394   0.414   0.411   0.377   0.398   0.386   0.382   0.373   0.405   0.371   0.371   0.372   0.394   0.414   0.378   0.371   0.390   0.399   0.379   0.414   0.405   0.374
     1.00    0.393   0.393   0.393   0.393   0.393   0.393   0.393   0.393   0.393   0.393   0.393   0.393   0.393   0.393   0.393   0.393   0.393   0.393   0.393   0.393   0.393   0.393

   Height   Standard deviation at grid points for the w component:
   421.00    0.376   0.379   0.387   0.378   0.350   0.373   0.386   0.354   0.362   0.347   0.352   0.383   0.351   0.349   0.387   0.364   0.357   0.362   0.370   0.375   0.386   0.378
   416.00    0.378   0.355   0.371   0.352   0.353   0.382   0.364   0.350   0.359   0.376   0.368   0.387   0.373   0.358   0.381   0.354   0.349   0.360   0.348   0.385   0.358   0.354
   411.00    0.379   0.357   0.383   0.379   0.349   0.354   0.359   0.385   0.384   0.364   0.351   0.385   0.380   0.382   0.374   0.354   0.385   0.352   0.381   0.354   0.386   0.348
   406.00    0.380   0.374   0.350   0.375   0.356   0.367   0.347   0.385   0.350   0.355   0.370   0.360   0.351   0.366   0.365   0.384   0.383   0.383   0.377   0.385   0.361   0.383
   401.00    0.371   0.373   0.374   0.385   0.373   0.381   0.386   0.355   0.347   0.369   0.385   0.379   0.362   0.384   0.384   0.359   0.346   0.350   0.357   0.361   0.379   0.362
   396.00    0.352   0.382   0.378   0.363   0.387   0.368   0.382   0.350   0.385   0.382   0.379   0.383   0.349   0.351   0.381   0.351   0.385   0.359   0.362   0.386   0.359   0.351
   391.00    0.369   0.379   0.379   0.386   0.374   0.374   0.351   0.373   0.368   0.356   0.372   0.348   0.351   0.365   0.366   0.349   0.353   0.375   0.381   0.373   0.347   0.369
   386.00    0.360   0.387   0.366   0.380   0.359   0.386   0.348   0.378   0.347   0.386   0.357   0.382   0.354   0.387   0.373   0.351   0.385   0.367   0.365   0.365   0.378   0.356
   381.00    0.353   0.383   0.374   0.348   0.347   0.379   0.378   0.348   0.386   0.366   0.381   0.372   0.388   0.382   0.384   0.374   0.367   0.358   0.356   0.363   0.365   0.353
   376.00    0.387   0.348   0.383   0.382   0.388   0.376   0.369   0.378   0.380   0.361   0.385   0.360   0.383   0.347   0.358   0.349   0.378   0.353   0.385   0.381   0.382   0.351
   371.00    0.384   0.387   0.388   0.355   0.384   0.352   0.384   0.386   0.371   0.379   0.362   0.356   0.371   0.384   0.353   0.382   0.382   0.360   0.360   0.364   0.365   0.385
   366.00    0.357   0.383   0.382   0.387   0.361   0.377   0.348   0.379   0.363   0.348   0.384   0.385   0.369   0.350   0.352   0.366   0.385   0.358   0.349   0.370   0.373   0.376
   361.00    0.346   0.348   0.348   0.382   0.347   0.374   0.372   0.349   0.350   0.365   0.355   0.377   0.381   0.351   0.348   0.376   0.354   0.373   0.386   0.350   0.363   0.359
   356.00    0.387   0.364   0.371   0.357   0.383   0.353   0.387   0.350   0.357   0.347   0.385   0.385   0.367   0.352   0.373   0.383   0.388   0.362   0.385   0.372   0.386   0.372
   351.00    0.381   0.379   0.353   0.383   0.386   0.364   0.371   0.348   0.370   0.375   0.360   0.347   0.351   0.350   0.349   0.385   0.384   0.382   0.352   0.386   0.366   0.350
   346.00    0.371   0.347   0.359   0.348   0.380   0.383   0.386   0.368   0.357   0.356   0.363   0.385   0.384   0.381   0.359   0.383   0.348   0.367   0.382   0.383   0.375   0.354
   341.00    0.384   0.383   0.351   0.386   0.347   0.375   0.371   0.374   0.351   0.350   0.387   0.361   0.366   0.356   0.348   0.381   0.380   0.383   0.383   0.357   0.350   0.368
   336.00    0.359   0.357   0.381   0.363   0.380   0.347   0.369   0.355   0.377   0.357   0.378   0.352   0.385   0.352   0.370   0.354   0.366   0.387   0.383   0.356   0.369   0.384
   331.00    0.355   0.377   0.366   0.352   0.354   0.378   0.367   0.380   0.353   0.372   0.350   0.362   0.363   0.351   0.350   0.367   0.361   0.383   0.347   0.352   0.355   0.352
   326.00    0.359   0.353   0.347   0.349   0.362   0.369   0.358   0.384   0.358   0.350   0.359   0.368   0.351   0.354   0.359   0.355   0.381   0.387   0.385   0.382   0.352   0.375
   321.00    0.381   0.351   0.381   0.367   0.377   0.362   0.361   0.354   0.358   0.351   0.378   0.362   0.359   0.359   0.376   0.368   0.386   0.387   0.353   0.378   0.348   0.359
   316.00    0.383   0.350   0.369   0.347   0.348   0.374   0.386   0.370   0.368   0.352   0.374   0.376   0.362   0.352   0.382   0.381   0.371   0.377   0.349   0.375   0.379   0.361
   311.00    0.358   0.348   0.373   0.384   0.374   0.350   0.383   0.349   0.385   0.354   0.378   0.369   0.378   0.346   0.349   0.376   0.360   0.386   0.376   0.349   0.365   0.387
   306.00    0.363   0.373   0.361   0.385   0.384   0.377   0.383   0.366   0.382   0.383   0.366   0.382   0.379   0.385   0.350   0.354   0.368   0.366   0.378   0.378   0.349   0.382
   301.00    0.377   0.350   0.350   0.349   0.350   0.366   0.364   0.362   0.355   0.357   0.350   0.372   0.353   0.381   0.358   0.372   0.347   0.362   0.372   0.370   0.353   0.348
   296.00    0.381   0.366   0.348   0.352   0.373   0.372   0.382   0.384   0.365   0.360   0.375   0.356   0.368   0.352   0.386   0.385   0.379   0.347   0.359   0.348   0.381   0.360
   291.00    0.367   0.381   0.382   0.368   0.349   0.381   0.370   0.349   0.349   0.370   0.358   0.369   0.349   0.387   0.372   0.364   0.356   0.383   0.381   0.377   0.349   0.381
   286.00    0.367   0.386   0.348   0.379   0.379   0.386   0.379   0.370   0.380   0.372   0.350   0.359   0.380   0.384   0.387   0.387   0.387   0.349   0.382   0.346   0.365   0.356
   281.00    0.361   0.366   0.372   0.364   0.369   0.369   0.355   0.388   0.383   0.348   0.378   0.360   0.376   0.363   0.384   0.382   0.378   0.380   0.352   0.386   0.365   0.361
   276.00    0.383   0.348   0.364   0.387   0.379   0.348   0.371   0.385   0.376   0.385   0.378   0.362   0.349   0.384   0.350   0.351   0.387   0.361   0.349   0.386   0.385   0.350
   271.00    0.381   0.380   0.372   0.377   0.350   0.368   0.352   0.384   0.381   0.361   0.385   0.388   0.373   0.373   0.348   0.377   0.384   0.377   0.375   0.379   0.376   0.383
   266.00    0.384   0.350   0.384   0.352   0.365   0.382   0.382   0.363   0.354   0.356   0.351   0.384   0.383   0.351   0.384   0.378   0.350   0.384   0.372   0.348   0.352   0.366
   261.00    0.378   0.352   0.347   0.351   0.386   0.386   0.369   0.354   0.380   0.384   0.378   0.350   0.350   0.375   0.354   0.384   0.350   0.351   0.370   0.378   0.386   0.380
   256.00    0.380   0.355   0.383   0.377   0.373   0.384   0.374   0.377   0.373   0.384   0.382   0.358   0.356   0.350   0.364   0.351   0.350   0.386   0.347   0.386   0.387   0.367
   251.00    0.347   0.384   0.351   0.363   0.382   0.358   0.351   0.348   0.385   0.384   0.362   0.372   0.383   0.351   0.355   0.380   0.374   0.381   0.382   0.364   0.377   0.359
   246.00    0.371   0.380   0.351   0.351   0.385   0.373   0.352   0.372   0.378   0.354   0.353   0.361   0.348   0.365   0.379   0.347   0.384   0.380   0.351   0.367   0.387   0.353
   241.00    0.354   0.352   0.349   0.351   0.354   0.359   0.366   0.373   0.385   0.363   0.349   0.358   0.384   0.351   0.364   0.383   0.386   0.370   0.383   0.384   0.371   0.387
   236.00    0.384   0.355   0.378   0.384   0.387   0.363   0.361   0.355   0.364   0.384   0.386   0.351   0.360   0.349   0.353   0.361   0.386   0.354   0.367   0.378   0.380   0.379
   231.00    0.360   0.379   0.353   0.375   0.386   0.350   0.383   0.387   0.380   0.375   0.387   0.378   0.348   0.350   0.355   0.356   0.382   0.367   0.373   0.360   0.357   0.383
   226.00    0.352   0.349   0.355   0.353   0.381   0.348   0.349   0.376   0.362   0.354   0.377   0.384   0.365   0.366   0.364   0.382   0.371   0.348   0.363   0.355   0.352   0.355
   221.00    0.356   0.383   0.383   0.385   0.355   0.361   0.351   0.387   0.381   0.352   0.348   0.362   0.374   0.386   0.352   0.359   0.362   0.367   0.357   0.348   0.364   0.349
   216.00    0.350   0.346   0.357   0.348   0.383   0.370   0.349   0.386   0.383   0.357   0.375   0.351   0.348   0.357   0.385   0.348   0.352   0.380   0.350   0.374   0.385   0.353
   211.00    0.351   0.386   0.366   0.357   0.348   0.378   0.351   0.372   0.355   0.366   0.354   0.351   0.374   0.353   0.385   0.375   0.354   0.364   0.387   0.380   0.368   0.385
   206.00    0.357   0.374   0.349   0.351   0.383   0.380   0.367   0.350   0.357   0.387   0.373   0.348   0.352   0.349   0.368   0.379   0.365   0.383   0.385   0.373   0.350   0.347
   201.00    0.382   0.347   0.356   0.365   0.376   0.349   0.347   0.385   0.366   0.382   0.374   0.381   0.358   0.360   0.347   0.387   0.368   0.379   0.365   0.347   0.375   0.385
   196.00    0.366   0.379   0.375   0.348   0.375   0.361   0.381   0.362   0.364   0.355   0.386   0.348   0.352   0.350   0.385   0.383   0.347   0.377   0.354   0.385   0.355   0.362
   191.00    0.349   0.368   0.374   0.367   0.359   0.380   0.381   0.372   0.381   0.350   0.363   0.381   0.366   0.365   0.353   0.368   0.384   0.387   0.353   0.377   0.357   0.385
   186.00    0.373   0.372   0.362   0.352   0.380   0.370   0.367   0.362   0.349   0.353   0.382   0.384   0.351   0.383   0.369   0.352   0.350   0.385   0.360   0.351   0.385   0.358
   181.00    0.362   0.385   0.373   0.370   0.384   0.366   0.360   0.350   0.372   0.382   0.386   0.368   0.363   0.354   0.373   0.359   0.385   0.354   0.360   0.353   0.368   0.361
   176.00    0.382   0.359   0.374   0.383   0.362   0.348   0.381   0.372   0.382   0.351   0.366   0.364   0.370   0.379   0.364   0.350   0.354   0.386   0.348   0.385   0.374   0.376
   171.00    0.368   0.347   0.360   0.384   0.382   0.384   0.352   0.351   0.371   0.359   0.364   0.353   0.348   0.387   0.385   0.364   0.364   0.380   0.360   0.382   0.355   0.373
   166.00    0.353   0.384   0.371   0.356   0.385   0.369   0.386   0.351   0.352   0.368   0.384   0.370   0.369   0.387   0.361   0.371   0.349   0.383   0.377   0.358   0.381   0.386
   161.00    0.350   0.353   0.368   0.362   0.384   0.350   0.379   0.379   0.377   0.375   0.360   0.350   0.348   0.380   0.384   0.370   0.386   0.352   0.387   0.355   0.355   0.386
   156.00    0.347   0.383   0.382   0.370   0.354   0.348   0.376   0.380   0.379   0.349   0.358   0.346   0.371   0.363   0.348   0.350   0.370   0.349   0.384   0.381   0.359   0.381
   151.00    0.384   0.384   0.382   0.373   0.366   0.380   0.361   0.376   0.359   0.362   0.378   0.385   0.355   0.375   0.387   0.351   0.364   0.350   0.386   0.369   0.370   0.365
   146.00    0.355   0.351   0.379   0.386   0.369   0.349   0.380   0.350   0.378   0.384   0.384   0.383   0.348   0.347   0.385   0.365   0.385   0.358   0.384   0.384   0.357   0.377
   141.00    0.372   0.379   0.357   0.374   0.353   0.357   0.347   0.384   0.351   0.351   0.349   0.365   0.383   0.378   0.378   0.360   0.350   0.347   0.348   0.349   0.350   0.354
   136.00    0.372   0.369   0.376   0.349   0.349   0.362   0.376   0.348   0.347   0.382   0.367   0.375   0.354   0.358   0.383   0.371   0.361   0.384   0.385   0.355   0.351   0.377
   131.00    0.351   0.385   0.347   0.363   0.348   0.357   0.384   0.385   0.388   0.362   0.347   0.350   0.375   0.386   0.386   0.351   0.380   0.376   0.363   0.365   0.372   0.359
   126.00    0.385   0.356   0.376   0.367   0.376   0.371   0.349   0.362   0.387   0.385   0.387   0.369   0.350   0.369   0.371   0.352   0.367   0.380   0.379   0.351   0.349   0.354
   121.00    0.370   0.387   0.353   0.370   0.359   0.376   0.387   0.387   0.385   0.380   0.377   0.360   0.361   0.348   0.371   0.359   0.350   0.384   0.384   0.381   0.359   0.351
   116.00    0.353   0.383   0.369   0.373   0.349   0.357   0.383   0.385   0.365   0.352   0.364   0.352   0.380   0.384   0.351   0.350   0.361   0.356   0.348   0.374   0.365   0.354
   111.00    0.356   0.348   0.376   0.375   0.370   0.385   0.363   0.378   0.379   0.367   0.376   0.385   0.349   0.353   0.379   0.371   0.367   0.350   0.374   0.381   0.383   0.382
   106.00    0.372   0.383   0.379   0.349   0.382   0.361   0.354   0.368   0.350   0.375   0.383   0.352   0.361   0.378   0.371   0.383   0.359   0.356   0.379   0.377   0.378   0.372
   101.00    0.373   0.348   0.371   0.378   0.364   0.352   0.371   0.381   0.358   0.358   0.362   0.350   0.370   0.384   0.351   0.350   0.375   0.355   0.378   0.370   0.377   0.382
    96.00    0.351   0.371   0.352   0.353   0.376   0.363   0.387   0.384   0.347   0.348   0.350   0.374   0.346   0.381   0.353   0.355   0.361   0.369   0.358   0.365   0.354   0.349
    91.00    0.378   0.365   0.353   0.384   0.366   0.382   0.381   0.383   0.381   0.372   0.353   0.346   0.386   0.356   0.382   0.355   0.385   0.382   0.385   0.362   0.385   0.373
    86.00    0.382   0.380   0.366   0.353   0.387   0.348   0.384   0.348   0.375   0.349   0.351   0.387   0.382   0.349   0.374   0.356   0.368   0.367   0.368   0.379   0.358   0.349
    81.00    0.353   0.377   0.366   0.370   0.384   0.374   0.354   0.369   0.368   0.384   0.361   0.387   0.349   0.369   0.349   0.381   0.350   0.362   0.372   0.356   0.354   0.360
    76.00    0.381   0.377   0.366   0.379   0.367   0.380   0.386   0.358   0.350   0.350   0.365   0.377   0.386   0.385   0.352   0.348   0.376   0.369   0.350   0.374   0.385   0.375
    71.00    0.358   0.359   0.348   0.354   0.367   0.360   0.379   0.349   0.353   0.385   0.348   0.358   0.379   0.387   0.370   0.385   0.348   0.351   0.347   0.354   0.379   0.349
    66.00    0.350   0.379   0.380   0.356   0.353   0.352   0.385   0.387   0.354   0.360   0.369   0.365   0.385   0.385   0.387   0.353   0.371   0.363   0.382   0.349   0.380   0.372
    61.00    0.383   0.355   0.350   0.351   0.357   0.364   0.362   0.383   0.378   0.385   0.347   0.382   0.365   0.376   0.382   0.348   0.375   0.354   0.367   0.358   0.383   0.367
    56.00    0.349   0.376   0.385   0.359   0.351   0.350   0.381   0.357   0.349   0.357   0.382   0.381   0.366   0.386   0.368   0.378   0.350   0.381   0.356   0.358   0.361   0.385
    51.00    0.359   0.386   0.362   0.363   0.382   0.352   0.378   0.382   0.349   0.376   0.349   0.349   0.347   0.381   0.349   0.348   0.350   0.373   0.369   0.349   0.385   0.368
    46.00    0.374   0.374   0.355   0.386   0.363   0.368   0.374   0.384   0.353   0.372   0.353   0.386   0.384   0.382   0.357   0.371   0.347   0.384   0.352   0.364   0.363   0.366
    41.00    0.388   0.357   0.348   0.370   0.380   0.361   0.358   0.360   0.379   0.374   0.374   0.381   0.347   0.357   0.354   0.348   0.385   0.349   0.387   0.353   0.353   0.368
    36.00    0.385   0.349   0.386   0.356   0.352   0.352   0.368   0.384   0.375   0.381   0.386   0.362   0.386   0.352   0.373   0.380   0.363   0.360   0.384   0.346   0.379   0.352
    31.00    0.385   0.373   0.373   0.353   0.349   0.381   0.367   0.355   0.349   0.382   0.379   0.351   0.385   0.351   0.347   0.354   0.383   0.379   0.362   0.384   0.351   0.359
    26.00    0.358   0.370   0.366   0.348   0.350   0.370   0.363   0.349   0.366   0.381   0.362   0.349   0.371   0.368   0.383   0.384   0.350   0.387   0.385   0.364   0.365   0.358
    21.00    0.349   0.357   0.383   0.371   0.348   0.381   0.363   0.362   0.351   0.352   0.351   0.358   0.353   0.349   0.350   0.356   0.385   0.382   0.377   0.350   0.362   0.347
    16.00    0.375   0.381   0.382   0.350   0.372   0.385   0.381   0.348   0.369   0.361   0.351   0.349   0.384   0.371   0.356   0.360   0.360   0.351   0.378   0.349   0.364   0.383
    11.00    0.368   0.370   0.383   0.383   0.354   0.387   0.350   0.375   0.351   0.350   0.361   0.382   0.362   0.349   0.366   0.356   0.364   0.381   0.380   0.376   0.366   0.381
     6.00    0.357   0.380   0.358   0.349   0.350   0.378   0.348   0.366   0.357   0.348   0.382   0.383   0.384   0.373   0.382   0.358   0.380   0.367   0.362   0.385   0.368   0.349
     1.00    0.368   0.368   0.368   0.368   0.368   0.368   0.368   0.368   0.368   0.368   0.368   0.368   0.368   0.368   0.368   0.368   0.368   0.368   0.368   0.368   0.368   0.368

   Mean standard deviation across all grid points:
      u component:    0.346 m/s
      v component:    0.392 m/s
      w component:    0.367 m/s


U-component (X) statistics from the interpolated hub point:

   Mean =   4.9085 m/s
   TI   =   3.8431 %


Processing complete.  4.496 CPU seconds used.
