
This summary file was generated by TurbSim on 19-Jan-2022 at 13:20:37.


Runtime Options:

-662076151  Random seed #1
    RANLUX  Type of random number generator
         F  Output binary HH turbulence parameters?
         F  Output formatted turbulence parameters?
         F  Output AeroDyn HH files?
         T  Output AeroDyn FF files?
         F  Output BLADED FF files?
         F  Output tower data?
         F  Output formatted FF files?
         F  Output coherent turbulence time step file?
         T  Clockwise rotation when looking downwind?
 0 -  NONE  IEC turbulence models scaled to exact specified standard deviation


Turbine/Model Specifications:

        10  Vertical grid-point matrix dimension
        42  Horizontal grid-point matrix dimension
     3.000  Time step [seconds]
  3600.000  Analysis time [seconds]
  3600.000  Usable output time [seconds]
   210.000  Hub height [m]
   171.000  Grid height [m]
   152.000  Grid width [m]
     0.000  Vertical flow angle [degrees]
     0.000  Horizontal flow angle [degrees]


Meteorological Boundary Conditions:

    TIMESR  User-input time series spectral model
       N/A  IEC standard
       N/A  IEC turbulence characteristic
       N/A  IEC turbulence type
       N/A  IEC Extreme Turbulence Model (ETM) "c" parameter [m/s]
       PL   Wind profile type
    88.500  Reference height [m]
     6.000  Reference wind speed [m/s]
       N/A  Jet height [m]
     0.100  Power law exponent
     0.030  Surface roughness length [m]


Non-IEC Meteorological Boundary Conditions:

    45.000  Site latitude [degrees]
     0.050  Gradient Richardson number
     0.288  Friction or shear velocity [m/s]
       N/A  Mixing layer depth [m]
       N/A  Mean hub u'w' Reynolds stress
       N/A  Mean hub u'v' Reynolds stress
       N/A  Mean hub v'w' Reynolds stress


Spatial Coherence Models:

       IEC  u-component coherence model
       IEC  v-component coherence model
       IEC  w-component coherence model
(   12.000, 0.353E-03)  u-component coherence parameters
(   12.000, 0.106E-02)  v-component coherence parameters
(   12.000, 0.433E-02)  w-component coherence parameters
       N/A  Coherence exponent


Profiles from User-Defined Time-Series Input:

  Height   Wind Speed   Horizontal Angle   Vertical Angle
   (m)        (m/s)          (deg)              (deg)    
  ------   ----------   ----------------   --------------
   88.50       6.04           0.00               -0.00


You have requested that the following file(s) be generated:

   Case00/Seed_0/TurbSim/HighT1.bts (AeroDyn/TurbSim full-field wind file)


Turbulence Simulation Scaling Parameter Summary:

   Turbulence model used                            =  User-input time series
   Gradient Richardson number                       =    0.050
   Monin-Obukhov (M-O) z/L parameter                =    0.067
   Monin-Obukhov (M-O) length scale                 = 3150.000 m
   Mean wind speed at hub height                    =    6.542 m/s

   Wind profile type                                =  Power law
   Power law exponent                               =    0.100
   Mean shear across rotor disk                     =    0.003 (m/s)/m
   Assumed rotor diameter                           =  152.000 m
   Surface roughness length                         =    0.030 m

   Nyquist frequency of turbulent wind field        =    0.167 Hz

   Number of time steps in the FFT                  =     1200
   Number of time steps output                      =     1200
   Number of points simulated                       =      422


Mean Flow Angles:

   Vertical   =   0.0 degrees
   Horizontal =   0.0 degrees

Mean Wind Speed Profile:

   Height    Wind Speed   Horizontal Angle  Vertical Angle  U-comp (X)   V-comp (Y)   W-comp (Z)
     (m)        (m/s)         (degrees)       (degrees)       (m/s)        (m/s)        (m/s)   
   ------    ----------   ----------------  --------------  ----------   ----------   ----------
    286.0        6.75            0.00            0.00          6.75         0.00         0.00
    267.0        6.70            0.00            0.00          6.70         0.00         0.00
    248.0        6.65            0.00            0.00          6.65         0.00         0.00
    229.0        6.60            0.00            0.00          6.60         0.00         0.00
    210.0        6.54            0.00            0.00          6.54         0.00         0.00
    210.0        6.54            0.00            0.00          6.54         0.00         0.00
    191.0        6.48            0.00            0.00          6.48         0.00         0.00
    172.0        6.41            0.00            0.00          6.41         0.00         0.00
    153.0        6.34            0.00            0.00          6.34         0.00         0.00
    134.0        6.25            0.00            0.00          6.25         0.00         0.00
    115.0        6.16            0.00            0.00          6.16         0.00         0.00


Harvested Random Seeds after Generation of the Random Numbers:

      7057950 K 1
            0 K 2


Hub-Height Simulated Turbulence Statistical Summary:

   Type of Wind        Min (m/s)   Mean (m/s)    Max (m/s)  Sigma (m/s)       TI (%)
   ----------------    ---------   ----------    ---------  -----------       ------
   Longitudinal (u)         1.41         6.54        11.94        1.667       25.484
   Lateral (v)             -4.18         0.00         3.92        1.233       18.851
   Vertical (w)            -2.03        -0.00         2.48        0.668       10.213
   U component              1.41         6.54        11.94        1.667       25.484
   V component             -4.18         0.00         3.92        1.233       18.851
   W component             -2.03        -0.00         2.48        0.668       10.213
   Horizontal (U&V)         1.42         6.66        11.95        1.644       24.669
   Total                    1.73         6.70        12.10        1.634       24.399

                       Min Reynolds     Mean Reynolds    Max Reynolds    Correlation
   Product             Stress (m/s)^2   Stress (m/s)^2   Stress (m/s)^2  Coefficient
   ----------------    --------------   --------------   --------------  -----------
   u'w'                     -7.365            -0.007            11.064        -0.006
   u'v'                     -6.473             0.176            10.781         0.086
   v'w'                     -4.019            -0.026             3.860        -0.031


   Friction Velocity (Ustar)  =      0.082 m/s
   Maximum Instantaneous TKE  =     16.462 (m/s)^2
   Maximum Instantaneous CTKE =      5.553 (m/s)^2


Grid Point Variance Summary:

   Y-coord  -76.00  -72.29  -68.59  -64.88  -61.17  -57.46  -53.76  -50.05  -46.34  -42.63  -38.93  -35.22  -31.51  -27.80  -24.10  -20.39  -16.68  -12.98   -9.27   -5.56   -1.85    1.85    5.56    9.27   12.98   16.68   20.39   24.10   27.80   31.51   35.22   38.93   42.63   46.34   50.05   53.76   57.46   61.17   64.88   68.59   72.29   76.00

   Height   Standard deviation at grid points for the u component:
   286.00    1.722   1.750   1.753   1.753   1.712   1.794   1.831   1.790   1.809   1.789   1.797   1.792   1.779   1.733   1.743   1.756   1.742   1.751   1.728   1.754   1.783   1.733   1.668   1.719   1.735   1.700   1.614   1.577   1.563   1.534   1.534   1.543   1.533   1.520   1.550   1.537   1.562   1.604   1.563   1.635   1.637   1.673
   267.00    1.797   1.858   1.821   1.824   1.845   1.730   1.774   1.738   1.774   1.780   1.833   1.828   1.808   1.771   1.792   1.782   1.820   1.793   1.746   1.677   1.671   1.621   1.703   1.701   1.673   1.617   1.620   1.536   1.592   1.532   1.502   1.548   1.582   1.601   1.605   1.659   1.685   1.674   1.605   1.585   1.583   1.661
   248.00    1.861   1.858   1.861   1.849   1.778   1.810   1.785   1.751   1.764   1.725   1.800   1.795   1.765   1.815   1.804   1.759   1.807   1.754   1.717   1.688   1.693   1.687   1.714   1.683   1.711   1.675   1.616   1.554   1.566   1.522   1.495   1.538   1.621   1.624   1.625   1.606   1.607   1.625   1.599   1.589   1.621   1.581
   229.00    1.788   1.835   1.818   1.759   1.832   1.840   1.845   1.815   1.801   1.803   1.829   1.831   1.846   1.891   1.875   1.817   1.804   1.776   1.683   1.714   1.746   1.692   1.705   1.693   1.678   1.738   1.750   1.720   1.692   1.663   1.573   1.591   1.654   1.672   1.715   1.630   1.641   1.638   1.574   1.528   1.506   1.523
   210.00    1.780   1.801   1.804   1.778   1.711   1.779   1.748   1.744   1.836   1.870   1.821   1.842   1.878   1.901   1.937   1.899   1.913   1.900   1.825   1.742   1.718   1.619   1.705   1.724   1.677   1.684   1.648   1.644   1.627   1.595   1.637   1.604   1.588   1.575   1.591   1.595   1.584   1.558   1.438   1.492   1.483   1.520
   191.00    1.702   1.767   1.722   1.743   1.790   1.787   1.818   1.831   1.816   1.766   1.763   1.779   1.765   1.824   1.863   1.832   1.865   1.854   1.805   1.804   1.871   1.878   1.852   1.848   1.873   1.817   1.750   1.750   1.701   1.703   1.620   1.684   1.633   1.591   1.554   1.539   1.517   1.469   1.474   1.520   1.569   1.585
   172.00    1.697   1.633   1.621   1.656   1.623   1.646   1.732   1.738   1.699   1.751   1.749   1.741   1.731   1.723   1.740   1.782   1.822   1.828   1.836   1.828   1.804   1.859   1.876   1.885   1.857   1.904   1.831   1.768   1.702   1.666   1.600   1.566   1.596   1.555   1.551   1.587   1.548   1.599   1.661   1.640   1.618   1.604
   153.00    1.700   1.665   1.620   1.657   1.594   1.601   1.630   1.647   1.713   1.687   1.689   1.717   1.702   1.684   1.695   1.714   1.686   1.709   1.751   1.782   1.694   1.701   1.689   1.707   1.633   1.633   1.657   1.646   1.676   1.705   1.620   1.635   1.614   1.552   1.613   1.608   1.622   1.615   1.677   1.691   1.646   1.691
   134.00    1.614   1.674   1.618   1.652   1.707   1.650   1.657   1.678   1.674   1.642   1.601   1.589   1.611   1.657   1.688   1.633   1.587   1.583   1.626   1.591   1.634   1.594   1.584   1.630   1.610   1.575   1.550   1.547   1.526   1.498   1.556   1.631   1.604   1.630   1.608   1.603   1.553   1.585   1.566   1.627   1.607   1.575
   115.00    1.636   1.658   1.646   1.613   1.617   1.645   1.615   1.661   1.670   1.627   1.598   1.594   1.631   1.596   1.646   1.739   1.717   1.722   1.680   1.688   1.717   1.676   1.679   1.655   1.601   1.616   1.612   1.604   1.525   1.511   1.494   1.541   1.577   1.616   1.674   1.612   1.617   1.558   1.548   1.568   1.595   1.665

   Height   Standard deviation at grid points for the v component:
   286.00    1.215   1.163   1.142   1.134   1.155   1.188   1.194   1.180   1.146   1.200   1.212   1.195   1.231   1.184   1.228   1.198   1.215   1.284   1.258   1.234   1.200   1.201   1.209   1.151   1.153   1.183   1.200   1.180   1.182   1.112   1.094   1.130   1.084   1.065   1.121   1.136   1.143   1.131   1.159   1.112   1.111   1.124
   267.00    1.203   1.213   1.231   1.247   1.231   1.237   1.278   1.290   1.269   1.235   1.265   1.277   1.289   1.299   1.310   1.291   1.309   1.268   1.208   1.213   1.179   1.172   1.219   1.143   1.180   1.171   1.179   1.193   1.166   1.122   1.146   1.137   1.147   1.129   1.137   1.137   1.098   1.134   1.119   1.094   1.111   1.127
   248.00    1.198   1.260   1.265   1.303   1.290   1.273   1.284   1.306   1.344   1.270   1.211   1.204   1.158   1.135   1.141   1.198   1.216   1.185   1.180   1.134   1.152   1.115   1.127   1.124   1.148   1.160   1.159   1.161   1.202   1.153   1.115   1.103   1.108   1.118   1.146   1.151   1.149   1.121   1.103   1.142   1.153   1.191
   229.00    1.127   1.175   1.240   1.266   1.265   1.271   1.221   1.249   1.240   1.233   1.206   1.167   1.167   1.189   1.185   1.145   1.141   1.167   1.141   1.096   1.113   1.127   1.144   1.151   1.169   1.181   1.192   1.183   1.174   1.151   1.157   1.162   1.202   1.177   1.174   1.167   1.155   1.169   1.198   1.189   1.175   1.198
   210.00    1.191   1.211   1.231   1.206   1.208   1.216   1.218   1.237   1.254   1.240   1.220   1.197   1.216   1.166   1.130   1.141   1.142   1.193   1.254   1.265   1.238   1.266   1.231   1.267   1.237   1.200   1.198   1.215   1.186   1.175   1.152   1.131   1.191   1.219   1.197   1.236   1.256   1.275   1.209   1.202   1.183   1.188
   191.00    1.208   1.238   1.257   1.237   1.219   1.215   1.166   1.147   1.191   1.261   1.233   1.203   1.162   1.134   1.153   1.192   1.234   1.236   1.270   1.241   1.249   1.215   1.230   1.248   1.185   1.191   1.186   1.209   1.212   1.161   1.171   1.185   1.204   1.203   1.191   1.243   1.224   1.176   1.144   1.161   1.207   1.182
   172.00    1.168   1.152   1.180   1.125   1.137   1.130   1.104   1.073   1.134   1.153   1.183   1.227   1.245   1.231   1.192   1.182   1.211   1.155   1.154   1.172   1.178   1.210   1.178   1.172   1.154   1.120   1.115   1.120   1.145   1.147   1.193   1.211   1.202   1.206   1.215   1.271   1.234   1.225   1.243   1.273   1.273   1.246
   153.00    1.172   1.167   1.146   1.170   1.163   1.165   1.156   1.150   1.191   1.218   1.234   1.186   1.199   1.207   1.236   1.246   1.222   1.199   1.287   1.256   1.261   1.242   1.226   1.181   1.225   1.240   1.226   1.295   1.246   1.229   1.216   1.161   1.169   1.177   1.212   1.249   1.226   1.238   1.211   1.229   1.250   1.228
   134.00    1.264   1.242   1.250   1.232   1.191   1.209   1.202   1.164   1.155   1.167   1.209   1.236   1.270   1.259   1.214   1.235   1.267   1.259   1.304   1.296   1.239   1.209   1.235   1.241   1.245   1.243   1.213   1.209   1.236   1.188   1.163   1.188   1.214   1.213   1.247   1.244   1.188   1.214   1.208   1.175   1.209   1.172
   115.00    1.214   1.218   1.237   1.241   1.252   1.268   1.229   1.211   1.228   1.186   1.187   1.191   1.218   1.223   1.212   1.248   1.292   1.294   1.279   1.314   1.330   1.330   1.281   1.304   1.273   1.281   1.301   1.261   1.265   1.246   1.237   1.240   1.269   1.251   1.217   1.176   1.180   1.198   1.192   1.186   1.154   1.142

   Height   Standard deviation at grid points for the w component:
   286.00    0.690   0.685   0.681   0.686   0.679   0.679   0.690   0.688   0.680   0.702   0.685   0.672   0.688   0.686   0.666   0.675   0.694   0.677   0.685   0.710   0.723   0.698   0.708   0.682   0.690   0.668   0.670   0.678   0.683   0.685   0.683   0.688   0.688   0.672   0.692   0.698   0.691   0.694   0.686   0.700   0.712   0.698
   267.00    0.690   0.682   0.687   0.672   0.668   0.673   0.688   0.700   0.715   0.707   0.684   0.673   0.686   0.669   0.679   0.697   0.700   0.679   0.674   0.684   0.695   0.689   0.668   0.680   0.683   0.682   0.685   0.687   0.668   0.662   0.676   0.682   0.712   0.712   0.703   0.696   0.685   0.690   0.695   0.712   0.697   0.682
   248.00    0.686   0.673   0.674   0.684   0.689   0.693   0.704   0.679   0.664   0.679   0.686   0.674   0.689   0.677   0.677   0.695   0.692   0.680   0.693   0.682   0.689   0.700   0.687   0.696   0.713   0.686   0.686   0.680   0.680   0.676   0.703   0.693   0.687   0.684   0.689   0.669   0.690   0.698   0.694   0.683   0.683   0.689
   229.00    0.693   0.702   0.683   0.693   0.686   0.686   0.683   0.677   0.651   0.667   0.670   0.705   0.699   0.684   0.696   0.671   0.669   0.669   0.683   0.677   0.675   0.664   0.685   0.691   0.680   0.663   0.679   0.669   0.703   0.685   0.670   0.683   0.680   0.671   0.670   0.663   0.662   0.678   0.688   0.687   0.683   0.683
   210.00    0.690   0.681   0.660   0.663   0.680   0.678   0.686   0.681   0.695   0.683   0.689   0.697   0.683   0.660   0.669   0.670   0.683   0.689   0.683   0.647   0.658   0.672   0.690   0.678   0.680   0.670   0.673   0.679   0.691   0.679   0.696   0.691   0.652   0.654   0.672   0.669   0.664   0.697   0.683   0.708   0.697   0.673
   191.00    0.692   0.717   0.705   0.699   0.710   0.697   0.688   0.729   0.724   0.727   0.723   0.722   0.696   0.700   0.699   0.723   0.717   0.733   0.714   0.717   0.700   0.700   0.684   0.673   0.661   0.664   0.648   0.661   0.684   0.700   0.691   0.699   0.689   0.721   0.677   0.681   0.684   0.694   0.689   0.696   0.709   0.710
   172.00    0.676   0.685   0.676   0.675   0.680   0.679   0.677   0.673   0.679   0.664   0.684   0.688   0.696   0.679   0.671   0.681   0.681   0.712   0.710   0.694   0.708   0.698   0.700   0.701   0.696   0.690   0.676   0.674   0.677   0.666   0.669   0.687   0.696   0.688   0.684   0.709   0.683   0.692   0.678   0.691   0.694   0.676
   153.00    0.674   0.674   0.682   0.678   0.664   0.676   0.671   0.689   0.672   0.671   0.674   0.672   0.678   0.682   0.703   0.677   0.711   0.725   0.711   0.710   0.681   0.689   0.687   0.704   0.693   0.679   0.701   0.692   0.699   0.695   0.688   0.697   0.690   0.710   0.702   0.685   0.677   0.677   0.676   0.668   0.659   0.667
   134.00    0.672   0.659   0.653   0.675   0.673   0.672   0.672   0.664   0.682   0.701   0.680   0.687   0.691   0.710   0.695   0.709   0.705   0.697   0.711   0.701   0.704   0.691   0.679   0.683   0.678   0.687   0.676   0.699   0.691   0.692   0.682   0.672   0.681   0.666   0.655   0.669   0.668   0.682   0.676   0.705   0.698   0.692
   115.00    0.686   0.686   0.697   0.681   0.666   0.670   0.689   0.704   0.707   0.700   0.685   0.698   0.720   0.707   0.681   0.703   0.702   0.669   0.678   0.678   0.671   0.678   0.686   0.697   0.693   0.682   0.683   0.700   0.706   0.684   0.689   0.700   0.694   0.700   0.697   0.696   0.688   0.709   0.680   0.684   0.695   0.687

   Mean standard deviation across all grid points:
      u component:    1.686 m/s
      v component:    1.200 m/s
      w component:    0.686 m/s


U-component (X) statistics from the interpolated hub point:

   Mean =   6.5415 m/s
   TI   =  24.9500 %


Processing complete.  10.796 CPU seconds used.
