
This summary file was generated by TurbSim on 21-Jan-2022 at 14:59:29.


Runtime Options:

**********  Random seed #1
    RANLUX  Type of random number generator
         F  Output binary HH turbulence parameters?
         F  Output formatted turbulence parameters?
         F  Output AeroDyn HH files?
         T  Output AeroDyn FF files?
         F  Output BLADED FF files?
         F  Output tower data?
         F  Output formatted FF files?
         F  Output coherent turbulence time step file?
         T  Clockwise rotation when looking downwind?
 0 -  NONE  IEC turbulence models scaled to exact specified standard deviation


Turbine/Model Specifications:

        10  Vertical grid-point matrix dimension
        21  Horizontal grid-point matrix dimension
     3.000  Time step [seconds]
  3600.000  Analysis time [seconds]
  3600.000  Usable output time [seconds]
   210.000  Hub height [m]
   418.000  Grid height [m]
  8113.000  Grid width [m]
     0.000  Vertical flow angle [degrees]
     0.000  Horizontal flow angle [degrees]


Meteorological Boundary Conditions:

    IECKAI  IEC Kaimal spectral model
         1  IEC standard: IEC 61400-1 Ed. 3: 2005
     0.150  Percent turbulence intensity, IEC 61400-1 Ed. 3: 2005
       NTM  IEC Normal Turbulence Model
       N/A  IEC Extreme Turbulence Model (ETM) "c" parameter [m/s]
       PL   Wind profile type
    88.500  Reference height [m]
     6.000  Reference wind speed [m/s]
       N/A  Jet height [m]
     0.050  Power law exponent
     0.030  Surface roughness length [m]


Non-IEC Meteorological Boundary Conditions:

       N/A  Site latitude [degrees]
       N/A  Gradient Richardson number
       N/A  Friction or shear velocity [m/s]
       N/A  Mixing layer depth [m]
       N/A  Mean hub u'w' Reynolds stress
       N/A  Mean hub u'v' Reynolds stress
       N/A  Mean hub v'w' Reynolds stress


Spatial Coherence Models:

       IEC  u-component coherence model
       IEC  v-component coherence model
       IEC  w-component coherence model
(   12.000, 0.353E-03)  u-component coherence parameters
(   12.000, 0.106E-02)  v-component coherence parameters
(   12.000, 0.433E-02)  w-component coherence parameters
       N/A  Coherence exponent


You have requested that the following file(s) be generated:

   Benchmark/Seed_0/TurbSim/Low.bts (AeroDyn/TurbSim full-field wind file)


Turbulence Simulation Scaling Parameter Summary:

   Turbulence model used                            =  IEC Kaimal
   Turbulence characteristic                        =  User-specified
   IEC standard                                     =  IEC 61400-1 Ed. 3: 2005
   Mean wind speed at hub height                    =    6.265 m/s
   Characteristic value of standard deviation       =    0.009 m/s
   Turbulence scale                                 =   42.000 m
   u-component integral scale                       =  340.200 m
   Coherency scale                                  =  340.200 m
   Characteristic value of hub turbulence intensity =    0.150%
   Gradient Richardson number                       =    0.000

   Wind profile type                                =  Power law
   Power law exponent                               =    0.050
   Mean shear across rotor disk                     =    0.004 (m/s)/m
   Assumed rotor diameter                           =  418.000 m
   Surface roughness length                         =    0.030 m

   Nyquist frequency of turbulent wind field        =    0.167 Hz

   Number of time steps in the FFT                  =     1200
   Number of time steps output                      =     1200
   Number of points simulated                       =      211


Mean Flow Angles:

   Vertical   =   0.0 degrees
   Horizontal =   0.0 degrees

Mean Wind Speed Profile:

   Height    Wind Speed   Horizontal Angle  Vertical Angle  U-comp (X)   V-comp (Y)   W-comp (Z)
     (m)        (m/s)         (degrees)       (degrees)       (m/s)        (m/s)        (m/s)   
   ------    ----------   ----------------  --------------  ----------   ----------   ----------
    419.0        6.49            0.00            0.00          6.49         0.00         0.00
    372.6        6.45            0.00            0.00          6.45         0.00         0.00
    326.1        6.40            0.00            0.00          6.40         0.00         0.00
    279.7        6.36            0.00            0.00          6.36         0.00         0.00
    233.2        6.30            0.00            0.00          6.30         0.00         0.00
    210.0        6.26            0.00            0.00          6.26         0.00         0.00
    186.8        6.23            0.00            0.00          6.23         0.00         0.00
    140.3        6.14            0.00            0.00          6.14         0.00         0.00
     93.9        6.02            0.00            0.00          6.02         0.00         0.00
     47.4        5.82            0.00            0.00          5.82         0.00         0.00
      1.0        4.80            0.00            0.00          4.80         0.00         0.00


Harvested Random Seeds after Generation of the Random Numbers:

      3528975 K 1
            0 K 2


Hub-Height Simulated Turbulence Statistical Summary:

   Type of Wind        Min (m/s)   Mean (m/s)    Max (m/s)  Sigma (m/s)       TI (%)
   ----------------    ---------   ----------    ---------  -----------       ------
   Longitudinal (u)         6.23         6.26         6.29        0.009        0.150
   Lateral (v)             -0.02        -0.00         0.02        0.007        0.106
   Vertical (w)            -0.01         0.00         0.01        0.004        0.061
   U component              6.23         6.26         6.29        0.009        0.150
   V component             -0.02        -0.00         0.02        0.007        0.106
   W component             -0.01         0.00         0.01        0.004        0.061
   Horizontal (U&V)         6.23         6.26         6.29        0.009        0.150
   Total                    6.23         6.26         6.29        0.009        0.150

                       Min Reynolds     Mean Reynolds    Max Reynolds    Correlation
   Product             Stress (m/s)^2   Stress (m/s)^2   Stress (m/s)^2  Coefficient
   ----------------    --------------   --------------   --------------  -----------
   u'w'                     -0.000            -0.000             0.000        -0.042
   u'v'                     -0.000             0.000             0.000         0.023
   v'w'                     -0.000            -0.000             0.000        -0.025


   Friction Velocity (Ustar)  =      0.001 m/s
   Maximum Instantaneous TKE  =      0.001 (m/s)^2
   Maximum Instantaneous CTKE =      0.000 (m/s)^2


Grid Point Variance Summary:

   Y-coord-4056.50-3650.85-3245.20-2839.55-2433.90-2028.25-1622.60-1216.95 -811.30 -405.65    0.00  405.65  811.30 1216.95 1622.60 2028.25 2433.90 2839.55 3245.20 3650.85 4056.50

   Height   Standard deviation at grid points for the u component:
   419.00    0.009   0.009   0.009   0.010   0.010   0.009   0.009   0.009   0.009   0.009   0.009   0.010   0.009   0.008   0.009   0.009   0.009   0.008   0.009   0.009   0.010
   372.56    0.008   0.009   0.009   0.009   0.010   0.009   0.009   0.009   0.008   0.008   0.009   0.009   0.008   0.008   0.009   0.008   0.009   0.009   0.009   0.009   0.010
   326.11    0.008   0.010   0.010   0.009   0.010   0.010   0.009   0.009   0.009   0.009   0.008   0.009   0.008   0.008   0.009   0.009   0.009   0.008   0.009   0.009   0.010
   279.67    0.008   0.009   0.009   0.009   0.009   0.010   0.009   0.008   0.009   0.009   0.008   0.009   0.008   0.009   0.009   0.009   0.009   0.009   0.009   0.010   0.009
   233.22    0.009   0.009   0.009   0.010   0.009   0.010   0.009   0.008   0.009   0.009   0.010   0.009   0.008   0.009   0.009   0.009   0.009   0.009   0.009   0.010   0.010
   186.78    0.008   0.009   0.009   0.010   0.010   0.009   0.009   0.009   0.009   0.009   0.009   0.009   0.008   0.009   0.009   0.009   0.010   0.009   0.008   0.010   0.009
   140.33    0.008   0.008   0.009   0.010   0.010   0.009   0.008   0.009   0.009   0.009   0.009   0.010   0.008   0.009   0.009   0.010   0.009   0.008   0.009   0.009   0.009
    93.89    0.009   0.008   0.009   0.010   0.010   0.010   0.009   0.009   0.009   0.008   0.009   0.009   0.009   0.008   0.009   0.010   0.010   0.010   0.010   0.009   0.009
    47.44    0.009   0.010   0.010   0.009   0.010   0.009   0.009   0.009   0.009   0.008   0.009   0.009   0.009   0.008   0.009   0.009   0.009   0.009   0.009   0.010   0.009
     1.00    0.009   0.009   0.009   0.009   0.009   0.009   0.009   0.009   0.009   0.009   0.009   0.009   0.009   0.009   0.009   0.009   0.009   0.009   0.009   0.009   0.009

   Height   Standard deviation at grid points for the v component:
   419.00    0.007   0.007   0.007   0.007   0.007   0.007   0.007   0.007   0.007   0.007   0.007   0.007   0.007   0.007   0.007   0.007   0.007   0.007   0.007   0.007   0.007
   372.56    0.007   0.007   0.007   0.007   0.007   0.007   0.007   0.007   0.007   0.007   0.007   0.007   0.006   0.007   0.007   0.007   0.007   0.007   0.007   0.007   0.007
   326.11    0.007   0.007   0.007   0.007   0.007   0.006   0.007   0.007   0.007   0.007   0.007   0.007   0.007   0.007   0.007   0.007   0.007   0.007   0.007   0.007   0.007
   279.67    0.007   0.007   0.007   0.007   0.007   0.007   0.007   0.007   0.007   0.007   0.007   0.007   0.007   0.007   0.007   0.007   0.007   0.007   0.007   0.007   0.007
   233.22    0.007   0.007   0.007   0.007   0.007   0.007   0.007   0.007   0.007   0.007   0.007   0.007   0.007   0.007   0.007   0.007   0.007   0.007   0.007   0.007   0.007
   186.78    0.007   0.007   0.007   0.007   0.007   0.007   0.007   0.007   0.007   0.007   0.007   0.007   0.007   0.007   0.007   0.007   0.007   0.007   0.007   0.007   0.007
   140.33    0.007   0.007   0.007   0.007   0.007   0.007   0.007   0.007   0.007   0.007   0.007   0.007   0.007   0.007   0.007   0.007   0.007   0.007   0.007   0.007   0.007
    93.89    0.007   0.007   0.007   0.007   0.007   0.007   0.007   0.007   0.007   0.007   0.007   0.007   0.007   0.007   0.007   0.007   0.007   0.007   0.007   0.007   0.007
    47.44    0.007   0.007   0.007   0.007   0.007   0.007   0.007   0.007   0.007   0.007   0.007   0.007   0.007   0.007   0.007   0.007   0.007   0.007   0.007   0.007   0.007
     1.00    0.007   0.007   0.007   0.007   0.007   0.007   0.007   0.007   0.007   0.007   0.007   0.007   0.007   0.007   0.007   0.007   0.007   0.007   0.007   0.007   0.007

   Height   Standard deviation at grid points for the w component:
   419.00    0.004   0.004   0.004   0.004   0.004   0.004   0.004   0.004   0.004   0.004   0.004   0.004   0.004   0.004   0.004   0.004   0.004   0.004   0.004   0.004   0.004
   372.56    0.004   0.004   0.004   0.004   0.004   0.004   0.004   0.004   0.004   0.004   0.004   0.004   0.004   0.004   0.004   0.004   0.004   0.004   0.004   0.004   0.004
   326.11    0.004   0.004   0.004   0.004   0.004   0.004   0.004   0.004   0.004   0.004   0.004   0.004   0.004   0.004   0.004   0.004   0.004   0.004   0.004   0.004   0.004
   279.67    0.004   0.004   0.004   0.004   0.004   0.004   0.004   0.004   0.004   0.004   0.004   0.004   0.004   0.004   0.004   0.004   0.004   0.004   0.004   0.004   0.004
   233.22    0.004   0.004   0.004   0.004   0.004   0.004   0.004   0.004   0.004   0.004   0.004   0.004   0.004   0.004   0.004   0.004   0.004   0.004   0.004   0.004   0.004
   186.78    0.004   0.004   0.004   0.004   0.004   0.004   0.004   0.004   0.004   0.004   0.004   0.004   0.004   0.004   0.004   0.004   0.004   0.004   0.004   0.004   0.004
   140.33    0.004   0.004   0.004   0.004   0.004   0.004   0.004   0.004   0.004   0.004   0.004   0.004   0.004   0.004   0.004   0.004   0.004   0.004   0.004   0.004   0.004
    93.89    0.004   0.004   0.004   0.004   0.004   0.004   0.004   0.004   0.004   0.004   0.004   0.004   0.004   0.004   0.004   0.004   0.004   0.004   0.004   0.004   0.004
    47.44    0.004   0.004   0.004   0.004   0.004   0.004   0.004   0.004   0.004   0.004   0.004   0.004   0.004   0.004   0.004   0.004   0.004   0.004   0.004   0.004   0.004
     1.00    0.004   0.004   0.004   0.004   0.004   0.004   0.004   0.004   0.004   0.004   0.004   0.004   0.004   0.004   0.004   0.004   0.004   0.004   0.004   0.004   0.004

   Mean standard deviation across all grid points:
      u component:    0.009 m/s
      v component:    0.007 m/s
      w component:    0.004 m/s


U-component (X) statistics from the interpolated hub point:

   Mean =   6.2631 m/s
   TI   =   0.1352 %


Processing complete.  3.4856 CPU seconds used.
